VERSION 18
*******************************************************************************
*** TRNSYS input file (deck) generated by TrnsysStudio
*** on Tuesday, August 15, 2023 at 15:47
*** from TrnsysStudio project: C:\Users\20181270\OneDrive - TU Eindhoven\PhD\TRNSYS\Publication1\pub_1\src\wwhp_cp.tpf
*** 
*** If you edit this file, use the File/Import TRNSYS Input File function in 
*** TrnsysStudio to update the project. 
*** 
*** If you have problems, questions or suggestions please contact your local 
*** TRNSYS distributor or mailto:software@cstb.fr 
*** 
*******************************************************************************


*******************************************************************************
*** Units 
*******************************************************************************

*******************************************************************************
*** Control cards
*******************************************************************************
* START, STOP and STEP
CONSTANTS 3
START=0
STOP=8760
STEP=6/60
SIMULATION 	 START	 STOP	 STEP	! Start time	End time	Time step
TOLERANCES 0.001 0.001			! Integration	 Convergence
LIMITS 2000 2000 2000				! Max iterations	Max warnings	Trace limit
DFQ 1					! TRNSYS numerical integration solver method
WIDTH 80				! TRNSYS output file width, number of characters
LIST 					! NOLIST statement
					! MAP statement
SOLVER 0 1 1				! Solver statement	Minimum relaxation factor	Maximum relaxation factor
NAN_CHECK 1				! Nan DEBUG statement
OVERWRITE_CHECK 1			! Overwrite DEBUG statement
TIME_REPORT 1			! enable time report statement
EQSOLVER 0				! EQUATION SOLVER statement
* User defined CONSTANTS 
*$USER_CONSTANTS
EQUATIONS 1
nPlots = (STOP-START)/168.
*$USER_CONSTANTS_END


* Model "PV/T" (Type 50)
* 

UNIT 3 TYPE 50	 PV/T
*$UNIT_NAME PV/T
*$MODEL .\Solar Thermal Collectors\PV-Thermal Collectors\Flat Plate Collectors\Loss=f(T,WS,G) and t=f(angle)\Type50d.tmf
*$POSITION 229 340
*$LAYER Main # 
PARAMETERS 13
4		! 1 Mode
area_coll		! 2 Collector Area
coll_eff		! 3 Collector Efficiency Factor
4.19		! 4 Fluid Thermal Capacitance
0.9		! 5 Collector plate absorptance
1		! 6 Number of glass covers
0.9		! 7 Collector plate emittance
20		! 8 Loss coefficient for bottom and edge losses
45		! 9 Collector slope
0.03		! 10 Extinction coefficient thickness product
-0.0003		! 11 Temperature coefficient of PV cell efficiency
20		! 12 Temperature for cell reference efficiency
pack_factor		! 13 Packing factor
INPUTS 8
0,0		! [unconnected] Inlet fluid temperature
0,0		! [unconnected] Fluid mass flow rate
48,1 		! Type15-3:Dry bulb temperature ->Ambient temperature
48,32 		! Type15-3:Beam radiation for surface-2 ->Incident beam radiation
48,53 		! Type15-3:Total diffuse radiation for surface-2 ->Incident diffuse radiation
48,60 		! Type15-3:Angle of incidence for surface-2 ->Incidence angle of beam radiation
48,8 		! Type15-3:Wind velocity ->Windspeed
0,0		! [unconnected] Cell Efficiency at reference conditions
*** INITIAL INPUT VALUES
10 160 0 0 0 0 0 0.2 
*------------------------------------------------------------------------------

* EQUATIONS "qAux tank-2"
* 
EQUATIONS 1
qAux_dhw = and([12,1], gt(mdDHW,0)) * 5400
*$UNIT_NAME qAux tank-2
*$LAYER Main
*$POSITION 406 106
*$UNIT_NUMBER 11

*------------------------------------------------------------------------------


* Model "tank stat-2" (Type 106)
* 

UNIT 12 TYPE 106	 tank stat-2
*$UNIT_NAME tank stat-2
*$MODEL .\Controllers\Basic Aquastat\Heating Mode\Type106.tmf
*$POSITION 541 86
*$LAYER Main # 
*$# Simple Aquastat - Heating
PARAMETERS 2
5		! 1 No. of oscillations permitted
3		! 2 Temperature dead band
INPUTS 2
13,14 		! tank DHW:Temperature at thermostat ->Monitoring temperature
0,0		! [unconnected] Heating setpoint
*** INITIAL INPUT VALUES
20.0 47 
*------------------------------------------------------------------------------

* Model "tank DHW" (Type 158)
* 

UNIT 13 TYPE 158	 tank DHW
*$UNIT_NAME tank DHW
*$MODEL .\Thermal Storage\Constant Volume Liquid Storage\Vertical Tank\No HX\Type158.tmf
*$POSITION 499 255
*$LAYER Main # 
*$# Cylindrical Storage Tank
PARAMETERS 17
tank_vol		! 1 Tank volume
1.8		! 2 Tank height
6		! 3 Number of tank nodes
2.5		! 4 Top loss coefficient
2.5		! 5 Edge loss coefficient
2.5		! 6 Bottom loss coefficient
4.19		! 7 Fluid specific heat
1000		! 8 Fluid density
2.224		! 9 Fluid thermal conductivity
0.67		! 10 Height fraction of inlet 1
0.		! 11 Height fraction of outlet 1
0.		! 12 Height fraction of inlet 2
1.		! 13 Height fraction of outlet 2
1		! 14 Number of thermostats
1		! 15 Height fraction of thermostat
1		! 16 Number of auxiliary heat inputs
0.67		! 17 Height fraction of auxiliary input
INPUTS 8
0,0		! [unconnected] Inlet temperature for port 1
0,0		! [unconnected] Inlet flow rate for port 1
14,1 		! div:Temperature at outlet 1 ->Inlet temperature for port 2
14,2 		! div:Flow rate at outlet 1 ->Inlet flow rate for port 2
0,0		! [unconnected] Top loss temperature
0,0		! [unconnected] Edge loss temperature
0,0		! [unconnected] Bottom loss temperature
qAux_dhw		! qAux tank-2:qAux_dhw ->Auxiliary heat input
*** INITIAL INPUT VALUES
20. 0. 20. 0. 20. 20. 20. 0 
DERIVATIVES 6
20.		! 1 Initial tank temperature for node-1
20.		! 2 Initial tank temperature for node-2
20.		! 3 Initial tank temperature for node-3
20.		! 4 Initial tank temperature for node-4
20.		! 5 Initial tank temperature for node-5
20.		! 6 Initial tank temperature for node-6
*------------------------------------------------------------------------------

* Model "div" (Type 11)
* 

UNIT 14 TYPE 11	 div
*$UNIT_NAME div
*$MODEL .\Hydronics\Flow Diverter\Other Fluids\Type11f.tmf
*$POSITION 510 482
*$LAYER Main # 
PARAMETERS 1
2		! 1 Flow diverter mode
INPUTS 3
TCold		! Daily load:TCold ->Inlet temperature
mdDHW		! Daily load:mdDHW ->Inlet flow rate
15,2 		! tempering:Fraction to Bypass Heat Source ->Control signal
*** INITIAL INPUT VALUES
20.0 100.0 0.5 
*------------------------------------------------------------------------------

* Model "tempering" (Type 115)
* 

UNIT 15 TYPE 115	 tempering
*$UNIT_NAME tempering
*$MODEL .\Controllers\Tempering Valve Control\Heating Mode\Type115.tmf
*$POSITION 487 381
*$LAYER Outputs # 
PARAMETERS 1
5		! 1 # Oscillations Permitted
INPUTS 3
0,0		! [unconnected] Setpoint Temperature
13,3 		! tank DHW:Temperature at outlet 2 ->Source Temperature
TCold		! Daily load:TCold ->Tempering Fluid Temperature (Return Temperature)
*** INITIAL INPUT VALUES
45 10.0 20.0 
*------------------------------------------------------------------------------

* Model "mix" (Type 11)
* 

UNIT 16 TYPE 11	 mix
*$UNIT_NAME mix
*$MODEL .\Hydronics\Tee-Piece Flow Mixer\Other Fluids\Type11h.tmf
*$POSITION 796 362
*$LAYER Main # 
PARAMETERS 1
1		! 1 Tee piece mode
INPUTS 4
13,3 		! tank DHW:Temperature at outlet 2 ->Temperature at inlet 1
13,4 		! tank DHW:Flow rate at outlet 2 ->Flow rate at inlet 1
14,3 		! div:Temperature at outlet 2 ->Temperature at inlet 2
14,4 		! div:Flow rate at outlet 2 ->Flow rate at inlet 2
*** INITIAL INPUT VALUES
20.0 100.0 20.0 100.0 
*------------------------------------------------------------------------------

* EQUATIONS "Daily load"
* 
EQUATIONS 2
mdDHW = [18,1] * 180        ! Multiply by daily consumption to get kg/h
TCold = 15
*$UNIT_NAME Daily load
*$LAYER Main
*$POSITION 368 485
*$UNIT_NUMBER 17

*------------------------------------------------------------------------------


* Model "Load profile" (Type 14)
* 

UNIT 18 TYPE 14	 Load profile
*$UNIT_NAME Load profile
*$MODEL .\Utility\Forcing Functions\Water Draw\Type14b.tmf
*$POSITION 255 485
*$LAYER Main # 
PARAMETERS 28
0		! 1 Initial value of time
0		! 2 Initial value of function
7		! 3 Time at point-1
0		! 4 Water draw at point -1
7		! 5 Time at point-2
0.2		! 6 Water draw at point -2
9		! 7 Time at point-3
0.2		! 8 Water draw at point -3
9		! 9 Time at point-4
0		! 10 Water draw at point -4
11		! 11 Time at point-5
0		! 12 Water draw at point -5
11		! 13 Time at point-6
0.1		! 14 Water draw at point -6
13		! 15 Time at point-7
0.1		! 16 Water draw at point -7
13		! 17 Time at point-8
0		! 18 Water draw at point -8
18		! 19 Time at point-9
0		! 20 Water draw at point -9
18		! 21 Time at point-10
0.1		! 22 Water draw at point -10
22		! 23 Time at point-11
0.1		! 24 Water draw at point -11
22		! 25 Time at point-12
0		! 26 Water draw at point -12
24		! 27 Time at point-13
0		! 28 Water draw at point -13
*------------------------------------------------------------------------------

* Model "Type21" (Type 21)
* 

UNIT 19 TYPE 21	 Type21
*$UNIT_NAME Type21
*$MODEL .\Utility\Time Values\Type21.tmf
*$POSITION 227 95
*$LAYER Main # 
PARAMETERS 2
1		! 1 Mode
0		! 2 Relative time?
*------------------------------------------------------------------------------

* Model "DHWload_RK" (Type 14)
* 

UNIT 20 TYPE 14	 DHWload_RK
*$UNIT_NAME DHWload_RK
*$MODEL .\Utility\Forcing Functions\Water Draw\Type14b.tmf
*$POSITION 255 605
*$LAYER Main # 
PARAMETERS 60
0		! 1 Initial value of time
0		! 2 Initial value of function
7		! 3 Time at point-1
0		! 4 Water draw at point -1
7		! 5 Time at point-2
0.35		! 6 Water draw at point -2
8		! 7 Time at point-3
0.35		! 8 Water draw at point -3
8		! 9 Time at point-4
0		! 10 Water draw at point -4
9		! 11 Time at point-5
0		! 12 Water draw at point -5
9		! 13 Time at point-6
0.01		! 14 Water draw at point -6
10		! 15 Time at point-7
0.01		! 16 Water draw at point -7
10		! 17 Time at point-8
0.02		! 18 Water draw at point -8
12		! 19 Time at point-9
0.02		! 20 Water draw at point -9
12		! 21 Time at point-10
0		! 22 Water draw at point -10
13		! 23 Time at point-11
0		! 24 Water draw at point -11
13		! 25 Time at point-12
0.08		! 26 Water draw at point -12
14		! 27 Time at point-13
0.08		! 28 Water draw at point -13
14		! 29 Time at point-14
0.02		! 30 Water draw at point -14
15		! 31 Time at point-15
0.02		! 32 Water draw at point -15
15		! 33 Time at point-16
0.01		! 34 Water draw at point -16
17		! 35 Time at point-17
0.01		! 36 Water draw at point -17
17		! 37 Time at point-18
0		! 38 Water draw at point -18
18		! 39 Time at point-19
0		! 40 Water draw at point -19
18		! 41 Time at point-20
0.08		! 42 Water draw at point -20
19		! 43 Time at point-21
0.08		! 44 Water draw at point -21
19		! 45 Time at point-22
0.03		! 46 Water draw at point -22
20		! 47 Time at point-23
0.03		! 48 Water draw at point -23
20		! 49 Time at point-24
0.01		! 50 Water draw at point -24
22		! 51 Time at point-25
0.01		! 52 Water draw at point -25
22		! 53 Time at point-26
0.35		! 54 Water draw at point -26
23		! 55 Time at point-27
0.35		! 56 Water draw at point -27
23		! 57 Time at point-28
0		! 58 Water draw at point -28
24		! 59 Time at point-29
0		! 60 Water draw at point -29
*------------------------------------------------------------------------------

* Model "energyflows" (Type 25)
* 

UNIT 40 TYPE 25	 energyflows
*$UNIT_NAME energyflows
*$MODEL .\Output\Printer\Unformatted\No Units\Type25c.tmf
*$POSITION 1501 250
*$LAYER Main # 
PARAMETERS 10
STEP		! 1 Printing interval
START		! 2 Start time
STOP		! 3 Stop time
79		! 4 Logical unit
0		! 5 Units printing mode
0		! 6 Relative or absolute start time
-1		! 7 Overwrite or Append
-1		! 8 Print header
2		! 9 Delimiter
1		! 10 Print labels
INPUTS 40
0,0		! [unconnected] Input to be printed-1
13,11 		! tank DHW:Auxiliary heating rate ->Input to be printed-2
3,3 		! PV/T:Rate of useful energy gain ->Input to be printed-3
0,0		! [unconnected] Input to be printed-4
0,0		! [unconnected] Input to be printed-5
0,0		! [unconnected] Input to be printed-6
0,0		! [unconnected] Input to be printed-7
48,25 		! Type15-3:Total tilted surface radiation for surface-2 ->Input to be printed-8
3,6 		! PV/T:Electrical power output ->Input to be printed-9
44,2 		! Type48c:Power to or from battery ->Input to be printed-10
total_load		! load:total_load ->Input to be printed-11
44,3 		! Type48c:Power to load ->Input to be printed-12
44,4 		! Type48c:Dumped generated power ->Input to be printed-13
44,5 		! Type48c:Power from grid ->Input to be printed-14
45,2 		! Type47b:Fractional state of charge ->Input to be printed-15
52,78 		! Building: 78- QELEQUIP_BG_living_room1 ->Input to be printed-16
52,79 		! Building: 79- QELLIGHT_BG_living_room1 ->Input to be printed-17
52,23 		! Building: 23- QELEQUIP_BG_Kitchen ->Input to be printed-18
52,24 		! Building: 24- QELLIGHT_BG_Kitchen ->Input to be printed-19
52,41 		! Building: 41- QELEQUIP_1e_Bedroom1 ->Input to be printed-20
52,42 		! Building: 42- QELLIGHT_1e_Bedroom1 ->Input to be printed-21
52,48 		! Building: 48- QELEQUIP_1e_Bedroom2 ->Input to be printed-22
52,49 		! Building: 49- QELLIGHT_1e_Bedroom2 ->Input to be printed-23
52,29 		! Building: 29- QELEQUIP_1e_Bedroom3 ->Input to be printed-24
52,30 		! Building: 30- QELLIGHT_1e_Bedroom3 ->Input to be printed-25
52,66 		! Building: 66- QELEQUIP_Attic1 ->Input to be printed-26
52,67 		! Building: 67- QELLIGHT_Attic1 ->Input to be printed-27
52,5 		! Building: 5- QELEQUIP_BG_Living_room2 ->Input to be printed-28
52,6 		! Building: 6- QELLIGHT_BG_Living_room2 ->Input to be printed-29
52,17 		! Building: 17- QELEQUIP_BG_Entree ->Input to be printed-30
52,18 		! Building: 18- QELLIGHT_BG_Entree ->Input to be printed-31
52,35 		! Building: 35- QELEQUIP_1e_Stairwell ->Input to be printed-32
52,36 		! Building: 36- QELLIGHT_1e_Stairwell ->Input to be printed-33
52,76 		! Building: 76- QHEAT_BG_living_room1 ->Input to be printed-34
52,39 		! Building: 39- QHEAT_1e_Bedroom1 ->Input to be printed-35
52,46 		! Building: 46- QHEAT_1e_Bedroom2 ->Input to be printed-36
0,0		! [unconnected] Input to be printed-37
0,0		! [unconnected] Input to be printed-38
0,0		! [unconnected] Input to be printed-39
52,3 		! Building: 3- QHEAT_BG_Living_room2 ->Input to be printed-40
*** INITIAL INPUT VALUES
Qaux_sh Qaux_dhw QuColl Qrad1 Qrad2 Qaux_tap Qhp Qirr Qpv Qbatt_tofrom
Qload Q2load Q2grid Qfrom_grid SOC dev_living ltg_living dev_kit ltg_kit
dev_bed1 ltg_bed1 dev_bed2 ltg_bed2 dev_bed3 ltg_bed3 dev_attic ltg_attic
dev_living2 ltg_living2 dev_entree ltg_entree dev_bath ltg_bath Qheat_living1
Qheat_bed1 Qheat_bed2 COP Qhp_heating Qhp_cooling Qheat_living2 
*** External files
ASSIGN "res\trn\x_cp_energy.txt" 79
*|? Output file for printed results |1000
*------------------------------------------------------------------------------

* Model "T/m" (Type 25)
* 

UNIT 41 TYPE 25	 T/m
*$UNIT_NAME T/m
*$MODEL .\Output\Printer\Unformatted\No Units\Type25c.tmf
*$POSITION 1501 394
*$LAYER Main # 
PARAMETERS 10
STEP		! 1 Printing interval
START		! 2 Start time
STOP		! 3 Stop time
80		! 4 Logical unit
0		! 5 Units printing mode
0		! 6 Relative or absolute start time
-1		! 7 Overwrite or Append
-1		! 8 Print header
2		! 9 Delimiter
1		! 10 Print labels
INPUTS 65
13,15 		! tank DHW:Tank nodal temperature-1 ->Input to be printed-1
13,16 		! tank DHW:Tank nodal temperature-2 ->Input to be printed-2
13,17 		! tank DHW:Tank nodal temperature-3 ->Input to be printed-3
13,18 		! tank DHW:Tank nodal temperature-4 ->Input to be printed-4
13,19 		! tank DHW:Tank nodal temperature-5 ->Input to be printed-5
13,20 		! tank DHW:Tank nodal temperature-6 ->Input to be printed-6
0,0		! [unconnected] Input to be printed-7
0,0		! [unconnected] Input to be printed-8
0,0		! [unconnected] Input to be printed-9
0,0		! [unconnected] Input to be printed-10
0,0		! [unconnected] Input to be printed-11
0,0		! [unconnected] Input to be printed-12
0,0		! [unconnected] Input to be printed-13
3,1 		! PV/T:Outlet fluid temperature ->Input to be printed-14
0,0		! [unconnected] Input to be printed-15
0,0		! [unconnected] Input to be printed-16
0,0		! [unconnected] Input to be printed-17
0,0		! [unconnected] Input to be printed-18
0,0		! [unconnected] Input to be printed-19
0,0		! [unconnected] Input to be printed-20
0,0		! [unconnected] Input to be printed-21
0,0		! [unconnected] Input to be printed-22
0,0		! [unconnected] Input to be printed-23
13,3 		! tank DHW:Temperature at outlet 2 ->Input to be printed-24
13,4 		! tank DHW:Flow rate at outlet 2 ->Input to be printed-25
0,0		! [unconnected] Input to be printed-26
0,0		! [unconnected] Input to be printed-27
52,74 		! Building: 74- TAIR_BG_living_room1 ->Input to be printed-28
52,37 		! Building: 37- TAIR_1e_Bedroom1 ->Input to be printed-29
0,0		! [unconnected] Input to be printed-30
0,0		! [unconnected] Input to be printed-31
0,0		! [unconnected] Input to be printed-32
0,0		! [unconnected] Input to be printed-33
16,1 		! mix:Outlet temperature ->Input to be printed-34
16,2 		! mix:Outlet flow rate ->Input to be printed-35
13,5 		! tank DHW:Average tank temperature ->Input to be printed-36
0,0		! [unconnected] Input to be printed-37
0,0		! [unconnected] Input to be printed-38
0,0		! [unconnected] Input to be printed-39
0,0		! [unconnected] Input to be printed-40
0,0		! [unconnected] Input to be printed-41
0,0		! [unconnected] Input to be printed-42
0,0		! [unconnected] Input to be printed-43
0,0		! [unconnected] Input to be printed-44
0,0		! [unconnected] Input to be printed-45
48,1 		! Type15-3:Dry bulb temperature ->Input to be printed-46
14,3 		! div:Temperature at outlet 2 ->Input to be printed-47
14,4 		! div:Flow rate at outlet 2 ->Input to be printed-48
0,0		! [unconnected] Input to be printed-49
0,0		! [unconnected] Input to be printed-50
13,1 		! tank DHW:Temperature at outlet 1 ->Input to be printed-51
13,2 		! tank DHW:Flow rate at outlet 1 ->Input to be printed-52
30,1 		! setpoint floor1:Forcing function output for current day ->Input to be printed-53
35,1 		! setpoint floor 2:Forcing function output for current day ->Input to be printed-54
0,0		! [unconnected] Input to be printed-55
0,0		! [unconnected] Input to be printed-56
0,0		! [unconnected] Input to be printed-57
0,0		! [unconnected] Input to be printed-58
0,0		! [unconnected] Input to be printed-59
0,0		! [unconnected] Input to be printed-60
0,0		! [unconnected] Input to be printed-61
0,0		! [unconnected] Input to be printed-62
0,0		! [unconnected] Input to be printed-63
0,0		! [unconnected] Input to be printed-64
52,1 		! Building: 1- TAIR_BG_Living_room2 ->Input to be printed-65
*** INITIAL INPUT VALUES
T1_dhw T2_dhw T3_dhw T4_dhw T5_dhw T6_dhw T1_sh T2_sh T3_sh T4_sh T5_sh
T6_sh Tcoll_in Tcoll_out m_coll Tsh_in msh_in Thp2dhw mhp2dhw Trad1_in
mrad1_in Trad2_in mrad2_in Tdhw2tap mdhw2tap Taux2tap maux2tap Tfloor1
Tfloor2 Trad1_return Trad2_return Tsh_return msh_return Tat_tap mat_tap
Tavg_dhw Tavg_sh Thp_source_in mhp_source_in Thp_source_out mhp_source_out
Thp_load_out mhp_load_out Thp_load_in mhp_load_in Tamb Tcold2tap mcold2tap
Tsh_cold_out msh_cold_out Tdhw_cold_out mdhw_cold_out Tset1 Tset2
TmixDHWin2 mmixDHWin2 TmixHPloadin2 mmixHPloadin2 TmixPVTin2 mmixPVTin2
TmixPVTout mmixPVTout TmixDHWout mmixDHWout Tfloor1_2 
*** External files
ASSIGN "res\trn\x_cp_temp_flow.txt" 80
*|? Output file for printed results |1000
*------------------------------------------------------------------------------

* Model "controls" (Type 25)
* 

UNIT 42 TYPE 25	 controls
*$UNIT_NAME controls
*$MODEL .\Output\Printer\Unformatted\No Units\Type25c.tmf
*$POSITION 1501 553
*$LAYER Main # 
PARAMETERS 10
STEP		! 1 Printing interval
START		! 2 Start time
STOP		! 3 Stop time
81		! 4 Logical unit
0		! 5 Units printing mode
0		! 6 Relative or absolute start time
-1		! 7 Overwrite or Append
-1		! 8 Print header
2		! 9 Delimiter
1		! 10 Print labels
INPUTS 15
floor1		! control_calc:floor1 ->heatingctr1
floor2		! control_calc:floor2 ->heatingctr2
0,0		! [unconnected] ctr_sh
0,0		! [unconnected] sh_div
ctrDHW		! control_calc:ctrDHW ->ctr_dhw
0,0		! [unconnected] ctr_hp
0,0		! [unconnected] hp_div
0,0		! [unconnected] coll_pump
night		! control_calc:night ->night
emergency		! control_calc:emergency ->emergency
legionella		! control_calc:legionella ->legionella
0,0		! [unconnected] ctr_irr
pvt_load_loop		! control_calc:pvt_load_loop ->pvt_load_loop
dhw_signal		! control_calc:dhw_signal ->dhw_load_signal
0,0		! [unconnected] sh_pump
*** INITIAL INPUT VALUES
heatingctr1 heatingctr2 ctr_sh sh_div ctr_dhw ctr_hp hp_div coll_pump
night emergency legionella ctr_irr pvt_load_loop dhw_load_signal sh_pump

*** External files
ASSIGN "res\trn\x_cp_control_signal.txt" 81
*|? Output file for printed results |1000
*------------------------------------------------------------------------------

* EQUATIONS "control_calc"
* 
EQUATIONS 9
floor1 = [27,1]
floor2 = [28,1]
night = and(lt([13,5],45), and( gt([19,11],3),lt([19,11],6) ) )
emergency = and(lt([13,5],30),  and( gt([19,11],16),lt([19,11],22) ) )
ctrDHW = or(or(night,emergency),legionella)
legionella = and(and(eql([19,7],7), lt([13,5],61)), and(gt([19,11],5),lt([19,11],8)))
heatingseason = or(lt([19,4],6), gt([19,4],9))
pvt_load_loop = gt([3,1],55)
dhw_signal = gt(mdDHW,0)
*$UNIT_NAME control_calc
*$LAYER Main
*$POSITION 1366 726
*$UNIT_NUMBER 43

*------------------------------------------------------------------------------


* Model "Type48c" (Type 48)
* 

UNIT 44 TYPE 48	 Type48c
*$UNIT_NAME Type48c
*$MODEL .\Electrical\Regulators and Inverters\System w_ battery storage\MPP Tracking\SOC and SOV monitoring\Type48c.tmf
*$POSITION 388 833
*$LAYER Main # 
PARAMETERS 10
2		! 1 Mode
0.78		! 2 Regulator efficiency
0.96		! 3 Inverter efficiency (DC to AC)
0.9		! 4 High limit on fractional state of charge (FSOC)
0.1		! 5 Low limit on FSOC
0.09		! 6 Charge to discharge limit on FSOC
3600		! 7 Power output limit
0.8		! 8 Inverter efficiency (AC to DC)
3		! 9 Current for grid charging of battery
0.6		! 10 Upper limit on FSOC for grid charging
INPUTS 12
3,6 		! PV/T:Electrical power output ->Input power
total_load		! load:total_load ->Load power
45,2 		! Type47b:Fractional state of charge ->Battery fractional state of charge
45,6 		! Type47b:Total voltage ->Battery voltage (BV)
max_batt_in		! [equation] Max battery input
max_batt_out		! [equation] Max battery output
dcv		! [equation] Lower limit on battery voltage
45,10 		! Type47b:Power corresponding to DCV ->Allowable discharge rate when at low voltage limit
ccv		! [equation] High limit on battery voltage
45,12 		! Type47b:Power corresponding to CCV ->Allowable charge rate when at high voltage limit
0,0		! [unconnected] Start time for grid battery charging
0,0		! [unconnected] Stop time for grid battery charging
*** INITIAL INPUT VALUES
0 0 0 200 max_batt_in max_batt_out dcv 0 ccv 0 24 0 
*------------------------------------------------------------------------------

* Model "Type47b" (Type 47)
* 

UNIT 45 TYPE 47	 Type47b
*$UNIT_NAME Type47b
*$MODEL .\Electrical\Batteries\Power as an input\Shepherd Equation\Type47b.tmf
*$POSITION 389 918
*$LAYER Main # 
PARAMETERS 9
2		! 1 Mode
cell_cap		! 2 Cell energy capacity
1		! 3 Cells in parallel
ncell		! 4 Cells in series
0.9		! 5 Charging efficiency
charge_current		! 6 Max. current per cell charging
discharge_current		! 7 Max. current per cell discharge
2.5		! 8 Max. charge voltage per cell
-1		! 9 Discharge cutoff voltage
INPUTS 1
44,2 		! Type48c:Power to or from battery ->Power to or from battery
*** INITIAL INPUT VALUES
0 
DERIVATIVES 1
0		! 1 State of charge1
*------------------------------------------------------------------------------

* EQUATIONS "load"
* 
EQUATIONS 3
ltg = [52,79] + [52,6] + [52,42] + [52,49] + [52,30] + [52,36] + [52,24] + [52,18] + [52,67]
app = [52,78] + [52,5] + [52,41] + [52,48] + [52,29] + [52,35] + [52,23] + [52,17] + [52,66]
total_load = ltg + app + [13,11]
*$UNIT_NAME load
*$LAYER Main
*$POSITION 509 795
*$UNIT_NUMBER 46

*------------------------------------------------------------------------------


* Model "Type15-3" (Type 15)
* 

UNIT 48 TYPE 15	 Type15-3
*$UNIT_NAME Type15-3
*$MODEL .\Weather Data Reading and Processing\Standard Format\Energy+ Weather Files (EPW)\Type15-3.tmf
*$POSITION 53 218
*$LAYER Main # 
PARAMETERS 27
3		! 1 File Type
82		! 2 Logical unit
3		! 3 Tilted Surface Radiation Mode
0.2		! 4 Ground reflectance - no snow
0.7		! 5 Ground reflectance - snow cover
7		! 6 Number of surfaces
1		! 7 Tracking mode-1
0.0		! 8 Slope of surface-1
AA_H_0_0		! 9 Azimuth of surface-1
1		! 10 Tracking mode-2
47.2		! 11 Slope of surface-2
AA_S_0_45		! 12 Azimuth of surface-2
1		! 13 Tracking mode-3
90		! 14 Slope of surface-3
AA_S_0_90		! 15 Azimuth of surface-3
1		! 16 Tracking mode-4
90		! 17 Slope of surface-4
AA_W_90_90		! 18 Azimuth of surface-4
1		! 19 Tracking mode-5
47.2		! 20 Slope of surface-5
AA_N_180_45		! 21 Azimuth of surface-5
1		! 22 Tracking mode-6
90		! 23 Slope of surface-6
AA_N_180_90		! 24 Azimuth of surface-6
1		! 25 Tracking mode-7
90		! 26 Slope of surface-7
AA_E_270_90		! 27 Azimuth of surface-7
*** External files
ASSIGN "C:\TRNSYS18\Weather\Energy+\NLD_Amsterdam.062400_IWEC.epw" 82
*|? Which file contains the Energy+ weather data? |1000
*------------------------------------------------------------------------------

* Model "Type77" (Type 77)
* 

UNIT 49 TYPE 77	 Type77
*$UNIT_NAME Type77
*$MODEL .\Physical Phenomena\Simple Ground Temperature Model\Type77.tmf
*$POSITION 76 136
*$LAYER Main # 
PARAMETERS 8
1		! 1 Number of temperature nodes
T_MEAN		! 2 Mean surface temperature
T_AMPLITUDE		! 3 Amplitude of surface temperature
t_T_MIN		! 4 Time shift
8.72		! 5 Soil thermal conductivity
3200.0		! 6 Soil density
0.84		! 7 Soil specific heat
h_depth		! 8 Depth at point 
*------------------------------------------------------------------------------

* EQUATIONS "Wizard Settings"
* 
EQUATIONS 12
HEMISPHERE = 1      ! hemisphere of weather data location (northern hemisphere: 1, southern hemisphere: -1)
TURN = HEMISPHERE * 0      ! rotation angle of scene (building & shaders) used for adapting azimuth angles
TBOUNDARY = 20      ! boundary temperature of surfaces (used by Type 56 - Multizone Building Model)
SHADE_CLOSE = 140 * 3.6      ! Close blinds - radiation on facade in [W/m2 * 3.6]=[kJ/hr] (used by Type 56 - Multizone Building Model)
SHADE_OPEN = 120 * 3.6      ! Open blinds - radiation on facade in [W/m2 * 3.6]=[kJ/hr] (used by Type 56 - Multizone Building Model)
MAX_ISHADE = 70/100      ! Maximum opaque fraction of internal shading device (used by Type 56 - Multizone Building Model)
MAX_ESHADE = 70/100      ! Maximum opaque fraction of external shading device (used by Type 56 - Multizone Building Model)
h_DEPTH = 1      ! ground temperature depth [m](used by Type 77 - Simple Ground Temperature Model)
T_MEAN = 9.1        ! mean annual ambient temperaure [C] (used by Type 77 - Simple Ground Temperature Model)
T_AMPLITUDE = 9.6      ! max. annual amplitude of ambient temperature [C] (used by Type 77 - Simple Ground Temperature Model)
t_T_MIN = 11      ! time shift of min. annual temperature [C] (used by Type 77 - Simple Ground Temperature Model)
WindDir = MOD([48,9]+TURN/HEMISPHERE,360) + LT([48,9]+TURN/HEMISPHERE,0)*(360)      ! wind direction corrected by scene rotation angle (0...360 deg)
*$UNIT_NAME Wizard Settings
*$LAYER Main
*$POSITION 63 31
*$UNIT_NUMBER 50

*------------------------------------------------------------------------------


* EQUATIONS "Radiation Unit Converter"
* 
EQUATIONS 31
AZEN = [48,16] ! [deg] solar zenith angle
AAZM = [48,17] ! [deg] solar azimuth angle
AAZM_TYPE56 = AAZM - (TURN) ! [deg] solar azimuth corrected by building rotation - Input for Type 56 sun position for SHM and ISM
AA_H_0_0 = 0 + TURN ! [deg] azimuth angle of orientation
AA_S_0_45 = 0 + TURN ! [deg] azimuth angle of orientation
AA_S_0_90 = 0 + TURN ! [deg] azimuth angle of orientation
AA_W_90_90 = 90 + TURN ! [deg] azimuth angle of orientation
AA_N_180_45 = 180 + TURN ! [deg] azimuth angle of orientation
AA_N_180_90 = 180 + TURN ! [deg] azimuth angle of orientation
AA_E_270_90 = 270 + TURN ! [deg] azimuth angle of orientation
IT_H_0_0 = [48,24]/3.6
IB_H_0_0 = [48,31]/3.6
AI_H_0_0 = [48,59]
IT_S_0_45 = [48,25]/3.6
IB_S_0_45 = [48,32]/3.6
AI_S_0_45 = [48,60]
IT_S_0_90 = [48,26]/3.6
IB_S_0_90 = [48,33]/3.6
AI_S_0_90 = [48,61]
IT_W_90_90 = [48,27]/3.6
IB_W_90_90 = [48,34]/3.6
AI_W_90_90 = [48,62]
IT_N_180_45 = [48,28]/3.6
IB_N_180_45 = [48,35]/3.6
AI_N_180_45 = [48,63]
IT_N_180_90 = [48,29]/3.6
IB_N_180_90 = [48,36]/3.6
AI_N_180_90 = [48,64]
IT_E_270_90 = [48,30]/3.6
IB_E_270_90 = [48,37]/3.6
AI_E_270_90 = [48,65]
*$UNIT_NAME Radiation Unit Converter
*$LAYER Main
*$POSITION 281 31
*$UNIT_NUMBER 51

*------------------------------------------------------------------------------


* Model "Building" (Type 56)
* 

UNIT 52 TYPE 56	 Building
*$UNIT_NAME Building
*$MODEL .\Loads and Structures\Multi-Zone Building\Type56.tmf
*$POSITION 344 212
*$LAYER Main # 
*$#   
PARAMETERS 3
83		! 1 Logical unit for building description file (*.b18, *.b17, *.bui)
0		! 2 Star network calculation switch
0.50		! 3 Weighting factor for operative temperature
INPUTS 18
48,1 		! Type15-3:Dry bulb temperature -> 1- TAMB
48,7 		! Type15-3:Percent relative humidity -> 2- RELHUMAMB
48,4 		! Type15-3:Effective sky temperature -> 3- TSKY
48,1 		! Type15-3:Dry bulb temperature -> 4- TSGRD
48,16 		! Type15-3:Solar zenith angle -> 5- AZEN
AAZM_TYPE56		! Radiation Unit Converter:AAZM_TYPE56 -> 6- AAZM
48,107 		! Type15-3:Ground reflectance -> 7- GRDREF
49,1 		! Type77:Soil Temperature at Node  -> 8- TGROUND
TBOUNDARY		! Wizard Settings:TBOUNDARY -> 9- TBOUNDARY
SHADE_CLOSE		! Wizard Settings:SHADE_CLOSE -> 10- SHADE_CLOSE
SHADE_OPEN		! Wizard Settings:SHADE_OPEN -> 11- SHADE_OPEN
MAX_ISHADE		! Wizard Settings:MAX_ISHADE -> 12- MAX_ISHADE
MAX_ESHADE		! Wizard Settings:MAX_ESHADE -> 13- MAX_ESHADE
0,0		! [unconnected]  14- Q_livingroom
0,0		! [unconnected]  15- Q_bedroom1
0,0		! [unconnected]  16- Q_bedroom2
0,0		! [unconnected]  17- Occ_schedule
infil_value		! Parameters:infil_value -> 18- infil_input
*** INITIAL INPUT VALUES
0 0 0 0 0 0 0 0 0 0 0 0 0 0 0 0 0 0 
*** External files
ASSIGN "House_internal_heating.b18" 83
*|? Building description file (*.b18, *.b17, *.bui) |1000