VERSION 18
*******************************************************************************
*** TRNSYS input file (deck) generated by TrnsysStudio
*** on Monday, July 17, 2023 at 11:57
*** from TrnsysStudio project: C:\Users\20181270\OneDrive - TU Eindhoven\PhD\TRNSYS\Publication1\pub_1\src\wwhp.tpf
*** 
*** If you edit this file, use the File/Import TRNSYS Input File function in 
*** TrnsysStudio to update the project. 
*** 
*** If you have problems, questions or suggestions please contact your local 
*** TRNSYS distributor or mailto:software@cstb.fr 
*** 
*******************************************************************************


*******************************************************************************
*** Units 
*******************************************************************************

*******************************************************************************
*** Control cards
*******************************************************************************
* START, STOP and STEP
CONSTANTS 3
START=0
STOP=8760
STEP=6/60
SIMULATION 	 START	 STOP	 STEP	! Start time	End time	Time step
TOLERANCES 0.001 0.001			! Integration	 Convergence
LIMITS 2000 2000 2000				! Max iterations	Max warnings	Trace limit
DFQ 1					! TRNSYS numerical integration solver method
WIDTH 80				! TRNSYS output file width, number of characters
LIST 					! NOLIST statement
					! MAP statement
SOLVER 0 1 1				! Solver statement	Minimum relaxation factor	Maximum relaxation factor
NAN_CHECK 1				! Nan DEBUG statement
OVERWRITE_CHECK 1			! Overwrite DEBUG statement
TIME_REPORT 1			! enable time report statement
EQSOLVER 0				! EQUATION SOLVER statement
* User defined CONSTANTS 
*$USER_CONSTANTS
EQUATIONS 1
nPlots = (STOP-START)/168.
*$USER_CONSTANTS_END


* Model "Pump_coll" (Type 114)
* 

UNIT 2 TYPE 114	 Pump_coll
*$UNIT_NAME Pump_coll
*$MODEL .\Hydronics\Pumps\Single Speed\Type114.tmf
*$POSITION 145 434
*$LAYER Main # 
*$# SINGLE-SPEED PUMP
PARAMETERS 4
flow_rate		! 1 Rated flow rate
4.19		! 2 Fluid specific heat
2684		! 3 Rated power
0.0		! 4 Motor heat loss fraction
INPUTS 5
6,1 		! mixPVT:Outlet temperature ->Inlet fluid temperature
6,2 		! mixPVT:Outlet flow rate ->Inlet fluid flow rate
pvt_pump		! control_calc:pvt_pump ->Control signal
0,0		! [unconnected] Overall pump efficiency
0,0		! [unconnected] Motor efficiency
*** INITIAL INPUT VALUES
20 0 1 0.6 0.9 
*------------------------------------------------------------------------------

* Model "PV/T" (Type 50)
* 

UNIT 3 TYPE 50	 PV/T
*$UNIT_NAME PV/T
*$MODEL .\Solar Thermal Collectors\PV-Thermal Collectors\Flat Plate Collectors\Loss=f(T,WS,G) and t=f(angle)\Type50d.tmf
*$POSITION 229 340
*$LAYER Main # 
PARAMETERS 13
4		! 1 Mode
area_coll		! 2 Collector Area
coll_eff		! 3 Collector Efficiency Factor
4.19		! 4 Fluid Thermal Capacitance
0.9		! 5 Collector plate absorptance
1		! 6 Number of glass covers
0.9		! 7 Collector plate emittance
20		! 8 Loss coefficient for bottom and edge losses
45		! 9 Collector slope
0.03		! 10 Extinction coefficient thickness product
-0.0003		! 11 Temperature coefficient of PV cell efficiency
20		! 12 Temperature for cell reference efficiency
pack_factor		! 13 Packing factor
INPUTS 8
2,1 		! Pump_coll:Outlet fluid temperature ->Inlet fluid temperature
2,2 		! Pump_coll:Outlet flow rate ->Fluid mass flow rate
48,1 		! Type15-3:Dry bulb temperature ->Ambient temperature
48,32 		! Type15-3:Beam radiation for surface-2 ->Incident beam radiation
48,53 		! Type15-3:Total diffuse radiation for surface-2 ->Incident diffuse radiation
48,60 		! Type15-3:Angle of incidence for surface-2 ->Incidence angle of beam radiation
48,8 		! Type15-3:Wind velocity ->Windspeed
0,0		! [unconnected] Cell Efficiency at reference conditions
*** INITIAL INPUT VALUES
10 160 0 0 0 0 0 0.2 
*------------------------------------------------------------------------------

* Model "divPVT" (Type 11)
* 

UNIT 4 TYPE 11	 divPVT
*$UNIT_NAME divPVT
*$MODEL .\Hydronics\Flow Diverter\Other Fluids\Type11f.tmf
*$POSITION 406 342
*$LAYER Main # 
PARAMETERS 1
2		! 1 Flow diverter mode
INPUTS 3
3,1 		! PV/T:Outlet fluid temperature ->Inlet temperature
3,2 		! PV/T:Fluid flowrate ->Inlet flow rate
pvt_load_loop		! control_calc:pvt_load_loop ->Control signal
*** INITIAL INPUT VALUES
20.0 100.0 1 
*------------------------------------------------------------------------------

* Model "controller DHW" (Type 165)
* 

UNIT 5 TYPE 165	 controller DHW
*$UNIT_NAME controller DHW
*$MODEL .\Controllers\Differential Controller w_ Hysteresis\for Temperatures\Type165.tmf
*$POSITION 346 436
*$LAYER Main # 
*$# 
*$# 
PARAMETERS 2
5		! 1 No. of oscillations
100.0		! 2 High limit cut-out
INPUTS 5
3,1 		! PV/T:Outlet fluid temperature ->Upper input temperature Th
13,1 		! tank DHW:Temperature at outlet 1 ->Lower input temperature Tl
13,16 		! tank DHW:Tank nodal temperature-2 ->Monitoring temperature Tin
db_high		! [equation] Upper dead band dT
db_low		! [equation] Lower dead band dT
*** INITIAL INPUT VALUES
20.0 10.0 20.0 db_high db_low 
*------------------------------------------------------------------------------

* Model "mixPVT" (Type 11)
* 

UNIT 6 TYPE 11	 mixPVT
*$UNIT_NAME mixPVT
*$MODEL .\Hydronics\Tee-Piece Flow Mixer\Other Fluids\Type11h.tmf
*$POSITION 345 536
*$LAYER Main # 
PARAMETERS 1
1		! 1 Tee piece mode
INPUTS 4
7,1 		! HP:Outlet Source Temperature ->Temperature at inlet 1
7,2 		! HP:Source Flowrate ->Flow rate at inlet 1
10,3 		! divDHW:Temperature at outlet 2 ->Temperature at inlet 2
10,4 		! divDHW:Flow rate at outlet 2 ->Flow rate at inlet 2
*** INITIAL INPUT VALUES
20.0 0 20.0 0 
*------------------------------------------------------------------------------

* Model "HP" (Type 927)
* 

UNIT 7 TYPE 927	 HP
*$UNIT_NAME HP
*$MODEL .\HVAC Library (TESS)\Heat Pumps\Single Speed Compressor and Multistage\Water(source) to Water Heat Pump\Single-Stage\Type927_v2a.tmf
*$POSITION 553 340
*$LAYER Main # 
*$# WATER(SOURCE) TO WATER HEAT PUMP
PARAMETERS 19
4.190		! 1 Source Fluid Specific Heat
4.190		! 2 Load Fluid Specific Heat
1000.		! 3 Source Fluid Density
1000.		! 4 Load Fluid Density
77		! 5 Logical Unit Number for Cooling Data File
8		! 6 Number of Source Temperatures - Cooling
4		! 7 Number of Load Temperatures - Cooling
78		! 8 Logical Unit for Heating Data
6		! 9 Number of Source Temperatures - Heating
4		! 10 Number of Load Temperatures - Heating
3		! 11 Number of Source Flowrates
3		! 12 Number of Load Flowrates
30000		! 13 Rated Cooling Capacity per Heat Pump
6000		! 14 Rated Cooling Power per Heat Pump
30000		! 15 Rated Heating Capacity per Heat Pump
6000		! 16 Rated Heating Power per Heat Pump
0.4		! 17 Rated Source Flowrate per Heat Pump
0.4		! 18 Rated Load Flowrate per Heat Pump
1		! 19 Number of Identical Heat Pumps
INPUTS 8
4,1 		! divPVT:Temperature at outlet 1 ->Inlet Source Temperature
4,2 		! divPVT:Flow rate at outlet 1 ->Source Flowrate
8,1 		! mixerHPload:Outlet temperature ->Inlet Load Temperature
8,2 		! mixerHPload:Outlet flow rate ->Load Flowrate
0,0		! [unconnected] Cooling Control Signal
ctrHP		! control_calc:ctrHP ->Heating Control Signal
0,0		! [unconnected] Scale Factor
0,0		! [unconnected] Number of Heat Pumps On
*** INITIAL INPUT VALUES
20 100 20 100 1 0 1 1 
*** External files
ASSIGN "C:\TRNSYS18\Tess Models\SampleCatalogData\Water-to-WaterHeatPumps\Normalized\WWHP_Cooling-Normalized.dat" 77
*|? Which file contains the cooling performance data? |1000
ASSIGN "C:\TRNSYS18\Tess Models\SampleCatalogData\Water-to-WaterHeatPumps\Normalized\WWHP_Heating-Normalized.dat" 78
*|? Which file contains the heating performance data? |1000
*------------------------------------------------------------------------------

* Model "mixerHPload" (Type 11)
* 

UNIT 8 TYPE 11	 mixerHPload
*$UNIT_NAME mixerHPload
*$MODEL .\Hydronics\Tee-Piece Flow Mixer\Other Fluids\Type11h.tmf
*$POSITION 660 595
*$LAYER Main # 
PARAMETERS 1
1		! 1 Tee piece mode
INPUTS 4
24,1 		! tank SH:Temperature at outlet 1 ->Temperature at inlet 1
24,2 		! tank SH:Flow rate at outlet 1 ->Flow rate at inlet 1
10,1 		! divDHW:Temperature at outlet 1 ->Temperature at inlet 2
10,2 		! divDHW:Flow rate at outlet 1 ->Flow rate at inlet 2
*** INITIAL INPUT VALUES
20.0 0 20.0 0 
*------------------------------------------------------------------------------

* Model "mixDHW" (Type 11)
* 

UNIT 9 TYPE 11	 mixDHW
*$UNIT_NAME mixDHW
*$MODEL .\Hydronics\Tee-Piece Flow Mixer\Other Fluids\Type11h.tmf
*$POSITION 1035 533
*$LAYER Main # 
PARAMETERS 1
1		! 1 Tee piece mode
INPUTS 4
25,3 		! divHP:Temperature at outlet 2 ->Temperature at inlet 1
25,4 		! divHP:Flow rate at outlet 2 ->Flow rate at inlet 1
4,3 		! divPVT:Temperature at outlet 2 ->Temperature at inlet 2
4,4 		! divPVT:Flow rate at outlet 2 ->Flow rate at inlet 2
*** INITIAL INPUT VALUES
20.0 0 20.0 0 
*------------------------------------------------------------------------------

* Model "divDHW" (Type 11)
* 

UNIT 10 TYPE 11	 divDHW
*$UNIT_NAME divDHW
*$MODEL .\Hydronics\Flow Diverter\Other Fluids\Type11f.tmf
*$POSITION 939 636
*$LAYER Main # 
PARAMETERS 1
2		! 1 Flow diverter mode
INPUTS 3
13,1 		! tank DHW:Temperature at outlet 1 ->Inlet temperature
13,2 		! tank DHW:Flow rate at outlet 1 ->Inlet flow rate
pvt_load_loop		! control_calc:pvt_load_loop ->Control signal
*** INITIAL INPUT VALUES
20.0 0 1 
*------------------------------------------------------------------------------

* EQUATIONS "qAux tank-2"
* 
EQUATIONS 1
qAux_dhw = and([12,1], gt(mdDHW,0)) * 5400
*$UNIT_NAME qAux tank-2
*$LAYER Main
*$POSITION 406 106
*$UNIT_NUMBER 11

*------------------------------------------------------------------------------


* Model "tank stat-2" (Type 106)
* 

UNIT 12 TYPE 106	 tank stat-2
*$UNIT_NAME tank stat-2
*$MODEL .\Controllers\Basic Aquastat\Heating Mode\Type106.tmf
*$POSITION 541 86
*$LAYER Main # 
*$# Simple Aquastat - Heating
PARAMETERS 2
5		! 1 No. of oscillations permitted
3		! 2 Temperature dead band
INPUTS 2
13,14 		! tank DHW:Temperature at thermostat ->Monitoring temperature
0,0		! [unconnected] Heating setpoint
*** INITIAL INPUT VALUES
20.0 47 
*------------------------------------------------------------------------------

* Model "tank DHW" (Type 158)
* 

UNIT 13 TYPE 158	 tank DHW
*$UNIT_NAME tank DHW
*$MODEL .\Thermal Storage\Constant Volume Liquid Storage\Vertical Tank\No HX\Type158.tmf
*$POSITION 499 255
*$LAYER Main # 
*$# Cylindrical Storage Tank
PARAMETERS 17
tank_vol		! 1 Tank volume
1.8		! 2 Tank height
6		! 3 Number of tank nodes
2.5		! 4 Top loss coefficient
2.5		! 5 Edge loss coefficient
2.5		! 6 Bottom loss coefficient
4.19		! 7 Fluid specific heat
1000		! 8 Fluid density
2.224		! 9 Fluid thermal conductivity
0.67		! 10 Height fraction of inlet 1
0.		! 11 Height fraction of outlet 1
0.		! 12 Height fraction of inlet 2
1.		! 13 Height fraction of outlet 2
1		! 14 Number of thermostats
1		! 15 Height fraction of thermostat
1		! 16 Number of auxiliary heat inputs
0.67		! 17 Height fraction of auxiliary input
INPUTS 8
9,1 		! mixDHW:Outlet temperature ->Inlet temperature for port 1
9,2 		! mixDHW:Outlet flow rate ->Inlet flow rate for port 1
14,1 		! div:Temperature at outlet 1 ->Inlet temperature for port 2
14,2 		! div:Flow rate at outlet 1 ->Inlet flow rate for port 2
0,0		! [unconnected] Top loss temperature
0,0		! [unconnected] Edge loss temperature
0,0		! [unconnected] Bottom loss temperature
qAux_dhw		! qAux tank-2:qAux_dhw ->Auxiliary heat input
*** INITIAL INPUT VALUES
20. 0. 20. 0. 20. 20. 20. 0 
DERIVATIVES 6
20.		! 1 Initial tank temperature for node-1
20.		! 2 Initial tank temperature for node-2
20.		! 3 Initial tank temperature for node-3
20.		! 4 Initial tank temperature for node-4
20.		! 5 Initial tank temperature for node-5
20.		! 6 Initial tank temperature for node-6
*------------------------------------------------------------------------------

* Model "div" (Type 11)
* 

UNIT 14 TYPE 11	 div
*$UNIT_NAME div
*$MODEL .\Hydronics\Flow Diverter\Other Fluids\Type11f.tmf
*$POSITION 510 482
*$LAYER Main # 
PARAMETERS 1
2		! 1 Flow diverter mode
INPUTS 3
TCold		! Daily load:TCold ->Inlet temperature
mdDHW		! Daily load:mdDHW ->Inlet flow rate
15,2 		! tempering:Fraction to Bypass Heat Source ->Control signal
*** INITIAL INPUT VALUES
20.0 100.0 0.5 
*------------------------------------------------------------------------------

* Model "tempering" (Type 115)
* 

UNIT 15 TYPE 115	 tempering
*$UNIT_NAME tempering
*$MODEL .\Controllers\Tempering Valve Control\Heating Mode\Type115.tmf
*$POSITION 487 381
*$LAYER Outputs # 
PARAMETERS 1
5		! 1 # Oscillations Permitted
INPUTS 3
0,0		! [unconnected] Setpoint Temperature
13,3 		! tank DHW:Temperature at outlet 2 ->Source Temperature
TCold		! Daily load:TCold ->Tempering Fluid Temperature (Return Temperature)
*** INITIAL INPUT VALUES
45 10.0 20.0 
*------------------------------------------------------------------------------

* Model "mix" (Type 11)
* 

UNIT 16 TYPE 11	 mix
*$UNIT_NAME mix
*$MODEL .\Hydronics\Tee-Piece Flow Mixer\Other Fluids\Type11h.tmf
*$POSITION 796 362
*$LAYER Main # 
PARAMETERS 1
1		! 1 Tee piece mode
INPUTS 4
13,3 		! tank DHW:Temperature at outlet 2 ->Temperature at inlet 1
13,4 		! tank DHW:Flow rate at outlet 2 ->Flow rate at inlet 1
14,3 		! div:Temperature at outlet 2 ->Temperature at inlet 2
14,4 		! div:Flow rate at outlet 2 ->Flow rate at inlet 2
*** INITIAL INPUT VALUES
20.0 100.0 20.0 100.0 
*------------------------------------------------------------------------------

* EQUATIONS "Daily load"
* 
EQUATIONS 2
mdDHW = [18,1] * 180        ! Multiply by daily consumption to get kg/h
TCold = 15
*$UNIT_NAME Daily load
*$LAYER Main
*$POSITION 368 485
*$UNIT_NUMBER 17

*------------------------------------------------------------------------------


* Model "Load profile" (Type 14)
* 

UNIT 18 TYPE 14	 Load profile
*$UNIT_NAME Load profile
*$MODEL .\Utility\Forcing Functions\Water Draw\Type14b.tmf
*$POSITION 255 485
*$LAYER Main # 
PARAMETERS 28
0		! 1 Initial value of time
0		! 2 Initial value of function
7		! 3 Time at point-1
0		! 4 Water draw at point -1
7		! 5 Time at point-2
0.2		! 6 Water draw at point -2
9		! 7 Time at point-3
0.2		! 8 Water draw at point -3
9		! 9 Time at point-4
0		! 10 Water draw at point -4
11		! 11 Time at point-5
0		! 12 Water draw at point -5
11		! 13 Time at point-6
0.1		! 14 Water draw at point -6
13		! 15 Time at point-7
0.1		! 16 Water draw at point -7
13		! 17 Time at point-8
0		! 18 Water draw at point -8
18		! 19 Time at point-9
0		! 20 Water draw at point -9
18		! 21 Time at point-10
0.1		! 22 Water draw at point -10
22		! 23 Time at point-11
0.1		! 24 Water draw at point -11
22		! 25 Time at point-12
0		! 26 Water draw at point -12
24		! 27 Time at point-13
0		! 28 Water draw at point -13
*------------------------------------------------------------------------------

* Model "Type21" (Type 21)
* 

UNIT 19 TYPE 21	 Type21
*$UNIT_NAME Type21
*$MODEL .\Utility\Time Values\Type21.tmf
*$POSITION 227 95
*$LAYER Main # 
PARAMETERS 2
1		! 1 Mode
0		! 2 Relative time?
*------------------------------------------------------------------------------

* Model "DHWload_RK" (Type 14)
* 

UNIT 20 TYPE 14	 DHWload_RK
*$UNIT_NAME DHWload_RK
*$MODEL .\Utility\Forcing Functions\Water Draw\Type14b.tmf
*$POSITION 255 605
*$LAYER Main # 
PARAMETERS 60
0		! 1 Initial value of time
0		! 2 Initial value of function
7		! 3 Time at point-1
0		! 4 Water draw at point -1
7		! 5 Time at point-2
0.35		! 6 Water draw at point -2
8		! 7 Time at point-3
0.35		! 8 Water draw at point -3
8		! 9 Time at point-4
0		! 10 Water draw at point -4
9		! 11 Time at point-5
0		! 12 Water draw at point -5
9		! 13 Time at point-6
0.01		! 14 Water draw at point -6
10		! 15 Time at point-7
0.01		! 16 Water draw at point -7
10		! 17 Time at point-8
0.02		! 18 Water draw at point -8
12		! 19 Time at point-9
0.02		! 20 Water draw at point -9
12		! 21 Time at point-10
0		! 22 Water draw at point -10
13		! 23 Time at point-11
0		! 24 Water draw at point -11
13		! 25 Time at point-12
0.08		! 26 Water draw at point -12
14		! 27 Time at point-13
0.08		! 28 Water draw at point -13
14		! 29 Time at point-14
0.02		! 30 Water draw at point -14
15		! 31 Time at point-15
0.02		! 32 Water draw at point -15
15		! 33 Time at point-16
0.01		! 34 Water draw at point -16
17		! 35 Time at point-17
0.01		! 36 Water draw at point -17
17		! 37 Time at point-18
0		! 38 Water draw at point -18
18		! 39 Time at point-19
0		! 40 Water draw at point -19
18		! 41 Time at point-20
0.08		! 42 Water draw at point -20
19		! 43 Time at point-21
0.08		! 44 Water draw at point -21
19		! 45 Time at point-22
0.03		! 46 Water draw at point -22
20		! 47 Time at point-23
0.03		! 48 Water draw at point -23
20		! 49 Time at point-24
0.01		! 50 Water draw at point -24
22		! 51 Time at point-25
0.01		! 52 Water draw at point -25
22		! 53 Time at point-26
0.35		! 54 Water draw at point -26
23		! 55 Time at point-27
0.35		! 56 Water draw at point -27
23		! 57 Time at point-28
0		! 58 Water draw at point -28
24		! 59 Time at point-29
0		! 60 Water draw at point -29
*------------------------------------------------------------------------------

* Model "DHW draw" (Type 65)
* 

UNIT 21 TYPE 65	 DHW draw
*$UNIT_NAME DHW draw
*$MODEL .\Output\Online Plotter\Online Plotter Without File\Type65d.tmf
*$POSITION 670 671
*$LAYER Main # 
PARAMETERS 12
2		! 1 Nb. of left-axis variables
3		! 2 Nb. of right-axis variables
0.0		! 3 Left axis minimum
1		! 4 Left axis maximum
0.0		! 5 Right axis minimum
200		! 6 Right axis maximum
1		! 7 Number of plots per simulation
12		! 8 X-axis gridpoints
0		! 9 Shut off Online w/o removing
-1		! 10 Logical unit for output file
0		! 11 Output file units
0		! 12 Output file delimiter
INPUTS 5
18,1 		! Load profile:Average water draw ->Left axis variable-1
20,1 		! DHWload_RK:Average water draw ->Left axis variable-2
mdDHW		! Daily load:mdDHW ->Right axis variable-1
0,0		! [unconnected] Right axis variable-2
0,0		! [unconnected] Right axis variable-3
*** INITIAL INPUT VALUES
OG RK mdDHW 1243 1251 
LABELS  3
"Temperature [C]"
"Heat Transfer Rate [kJ/h] "
"DHW_draw"
*------------------------------------------------------------------------------

* Model "tank stat" (Type 106)
* 

UNIT 22 TYPE 106	 tank stat
*$UNIT_NAME tank stat
*$MODEL .\Controllers\Basic Aquastat\Heating Mode\Type106.tmf
*$POSITION 816 323
*$LAYER Main # 
*$# Simple Aquastat - Heating
PARAMETERS 2
5		! 1 No. of oscillations permitted
2.0		! 2 Temperature dead band
INPUTS 2
24,14 		! tank SH:Temperature at thermostat ->Monitoring temperature
0,0		! [unconnected] Heating setpoint
*** INITIAL INPUT VALUES
20.0 40 
*------------------------------------------------------------------------------

* EQUATIONS "qAux tank"
* 
EQUATIONS 1
qAux_tank = [22,1]*0
*$UNIT_NAME qAux tank
*$LAYER Main
*$POSITION 929 323
*$UNIT_NUMBER 23

*------------------------------------------------------------------------------


* Model "tank SH" (Type 158)
* 

UNIT 24 TYPE 158	 tank SH
*$UNIT_NAME tank SH
*$MODEL .\Thermal Storage\Constant Volume Liquid Storage\Vertical Tank\No HX\Type158.tmf
*$POSITION 820 181
*$LAYER Main # 
*$# Cylindrical Storage Tank
PARAMETERS 17
0.025		! 1 Tank volume
1.8		! 2 Tank height
6		! 3 Number of tank nodes
2.5		! 4 Top loss coefficient
2.5		! 5 Edge loss coefficient
2.5		! 6 Bottom loss coefficient
4.19		! 7 Fluid specific heat
1000		! 8 Fluid density
2.224		! 9 Fluid thermal conductivity
0.67		! 10 Height fraction of inlet 1
0.		! 11 Height fraction of outlet 1
0.		! 12 Height fraction of inlet 2
1.		! 13 Height fraction of outlet 2
1		! 14 Number of thermostats
0.75		! 15 Height fraction of thermostat
1		! 16 Number of auxiliary heat inputs
0.75		! 17 Height fraction of auxiliary input
INPUTS 8
25,1 		! divHP:Temperature at outlet 1 ->Inlet temperature for port 1
25,2 		! divHP:Flow rate at outlet 1 ->Inlet flow rate for port 1
31,1 		! MixerRad:Outlet temperature ->Inlet temperature for port 2
31,2 		! MixerRad:Outlet flow rate ->Inlet flow rate for port 2
0,0		! [unconnected] Top loss temperature
0,0		! [unconnected] Edge loss temperature
0,0		! [unconnected] Bottom loss temperature
qAux_tank		! qAux tank:qAux_tank ->Auxiliary heat input
*** INITIAL INPUT VALUES
20. 0. 20. 150 20. 20. 20. 0 
DERIVATIVES 6
20.		! 1 Initial tank temperature for node-1
20.		! 2 Initial tank temperature for node-2
20.		! 3 Initial tank temperature for node-3
20.		! 4 Initial tank temperature for node-4
20.		! 5 Initial tank temperature for node-5
20.		! 6 Initial tank temperature for node-6
*------------------------------------------------------------------------------

* Model "divHP" (Type 11)
* 

UNIT 25 TYPE 11	 divHP
*$UNIT_NAME divHP
*$MODEL .\Hydronics\Flow Diverter\Other Fluids\Type11f.tmf
*$POSITION 833 322
*$LAYER Main # 
PARAMETERS 1
2		! 1 Flow diverter mode
INPUTS 3
26,1 		! pumpHP:Outlet fluid temperature ->Inlet temperature
26,2 		! pumpHP:Outlet flow rate ->Inlet flow rate
ctr_divHP		! control_calc:ctr_divHP ->Control signal
*** INITIAL INPUT VALUES
20.0 0 0 
*------------------------------------------------------------------------------

* Model "pumpHP" (Type 114)
* 

UNIT 26 TYPE 114	 pumpHP
*$UNIT_NAME pumpHP
*$MODEL .\Hydronics\Pumps\Single Speed\Type114.tmf
*$POSITION 710 323
*$LAYER Main # 
*$# SINGLE-SPEED PUMP
PARAMETERS 4
flow_rate		! 1 Rated flow rate
4.19		! 2 Fluid specific heat
2684		! 3 Rated power
0.0		! 4 Motor heat loss fraction
INPUTS 5
7,3 		! HP:Outlet Load Temperature ->Inlet fluid temperature
7,4 		! HP:Load Flowrate ->Inlet fluid flow rate
ctrHP		! control_calc:ctrHP ->Control signal
0,0		! [unconnected] Overall pump efficiency
0,0		! [unconnected] Motor efficiency
*** INITIAL INPUT VALUES
20 0 1 0.6 0.9 
*------------------------------------------------------------------------------

* Model "Pump SH" (Type 114)
* 

UNIT 27 TYPE 114	 Pump SH
*$UNIT_NAME Pump SH
*$MODEL .\Hydronics\Pumps\Single Speed\Type114.tmf
*$POSITION 1134 303
*$LAYER Main # 
*$# SINGLE-SPEED PUMP
PARAMETERS 4
flow_rate		! 1 Rated flow rate
4.19		! 2 Fluid specific heat
2684		! 3 Rated power
0.0		! 4 Motor heat loss fraction
INPUTS 5
24,3 		! tank SH:Temperature at outlet 2 ->Inlet fluid temperature
24,4 		! tank SH:Flow rate at outlet 2 ->Inlet fluid flow rate
ctrSH		! control_calc:ctrSH ->Control signal
0,0		! [unconnected] Overall pump efficiency
0,0		! [unconnected] Motor efficiency
*** INITIAL INPUT VALUES
20 0 1 0.6 0.9 
*------------------------------------------------------------------------------

* Model "div SH" (Type 11)
* 

UNIT 28 TYPE 11	 div SH
*$UNIT_NAME div SH
*$MODEL .\Hydronics\Flow Diverter\Other Fluids\Type11f.tmf
*$POSITION 1225 302
*$LAYER Main # 
PARAMETERS 1
2		! 1 Flow diverter mode
INPUTS 3
27,1 		! Pump SH:Outlet fluid temperature ->Inlet temperature
27,2 		! Pump SH:Outlet flow rate ->Inlet flow rate
ctr_divSH		! control_calc:ctr_divSH ->Control signal
*** INITIAL INPUT VALUES
20.0 100.0 0 
*------------------------------------------------------------------------------

* Model "setpoint floor 1" (Type 108)
* 

UNIT 29 TYPE 108	 setpoint floor 1
*$UNIT_NAME setpoint floor 1
*$MODEL .\Controllers\5-Stage Room Thermostat\Type108.tmf
*$POSITION 626 406
*$LAYER Main # 
PARAMETERS 6
5		! 1 No of oscillations permitted
1		! 2 1st stage heating in 2nd stage?
1		! 3 2nd stage heating in 3rd stage?
1		! 4 1st stage heating in 3rd stage?
1		! 5 1st stage cooling in 2nd stage?
5		! 6 Temperature dead band
INPUTS 6
52,1 		! Building: 1- TAIR_BG_Living_room2 ->Monitoring temperature
32,1 		! setpoint floor1:Forcing function output for current day ->1st stage heating setpoint
0,0		! [unconnected] 2nd stage heating setpoint
0,0		! [unconnected] 3rd stage heating setpoint
0,0		! [unconnected] 1st stage cooling setpoint
0,0		! [unconnected] 2nd stage cooling setpoint
*** INITIAL INPUT VALUES
20.0 21 13 2 24.0 26.0 
*------------------------------------------------------------------------------

* Model "setpoint floor 2-2" (Type 108)
* 

UNIT 30 TYPE 108	 setpoint floor 2-2
*$UNIT_NAME setpoint floor 2-2
*$MODEL .\Controllers\5-Stage Room Thermostat\Type108.tmf
*$POSITION 617 524
*$LAYER Main # 
PARAMETERS 6
5		! 1 No of oscillations permitted
1		! 2 1st stage heating in 2nd stage?
1		! 3 2nd stage heating in 3rd stage?
1		! 4 1st stage heating in 3rd stage?
1		! 5 1st stage cooling in 2nd stage?
2		! 6 Temperature dead band
INPUTS 6
52,35 		! Building: 35- TAIR_1e_Bedroom1 ->Monitoring temperature
37,1 		! setpoint floor 2:Forcing function output for current day ->1st stage heating setpoint
0,0		! [unconnected] 2nd stage heating setpoint
0,0		! [unconnected] 3rd stage heating setpoint
0,0		! [unconnected] 1st stage cooling setpoint
0,0		! [unconnected] 2nd stage cooling setpoint
*** INITIAL INPUT VALUES
20.0 16 13 2 24.0 26.0 
*------------------------------------------------------------------------------

* Model "MixerRad" (Type 11)
* 

UNIT 31 TYPE 11	 MixerRad
*$UNIT_NAME MixerRad
*$MODEL .\Hydronics\Controlled Flow Mixer\Other Fluids\Type11d.tmf
*$POSITION 441 369
*$LAYER Water Loop # 
PARAMETERS 1
3		! 1 Controlled flow mixer mode
INPUTS 5
38,1 		! Radiator1:Liquid Outlet Temperature ->Temperature at inlet 1
38,2 		! Radiator1:Liquid Outlet Flowrate ->Flow rate at inlet 1
39,1 		! Radiator2:Liquid Outlet Temperature ->Temperature at inlet 2
39,2 		! Radiator2:Liquid Outlet Flowrate ->Flow rate at inlet 2
0,0		! [unconnected] Control signal
*** INITIAL INPUT VALUES
20.0 100.0 20.0 100.0 0.5 
*------------------------------------------------------------------------------

* Model "setpoint floor1" (Type 41)
* 

UNIT 32 TYPE 41	 setpoint floor1
*$UNIT_NAME setpoint floor1
*$MODEL .\Utility\Forcing Function Sequencers\Unique Days of the Week\Type41c.tmf
*$POSITION 736 223
*$LAYER Main # 
PARAMETERS 8
1		! 1 Number of profiles for each day
1		! 2 Input set for day 1
2		! 3 Input set for day 2
3		! 4 Input set for day 3
4		! 5 Input set for day 4
5		! 6 Input set for day 5
6		! 7 Input set for day 6
7		! 8 Input set for day 7
INPUTS 7
34,1 		! schedule week:Average temperature ->First day input 
34,1 		! schedule week:Average temperature ->Second day input
34,1 		! schedule week:Average temperature ->Third day input
34,1 		! schedule week:Average temperature ->Fourth day input
34,1 		! schedule week:Average temperature ->Fifth day input
33,1 		! schedule weekend:Average temperature ->Sixth day input
33,1 		! schedule weekend:Average temperature ->Seventh day input
*** INITIAL INPUT VALUES
0 0 0 0 0 0 0 
*------------------------------------------------------------------------------

* Model "schedule weekend" (Type 14)
* 

UNIT 33 TYPE 14	 schedule weekend
*$UNIT_NAME schedule weekend
*$MODEL .\Utility\Forcing Functions\Temperature\Type14e.tmf
*$POSITION 900 304
*$LAYER Main # 
PARAMETERS 22
0		! 1 Initial value of time
16		! 2 Initial temperature
6		! 3 Time at point
16		! 4 Value at point
8		! 5 Time at point
16		! 6 Value at point
8		! 7 Time at point
21		! 8 Value at point
10		! 9 Time at point
21		! 10 Value at point
10		! 11 Time at point
20		! 12 Value at point
21		! 13 Time at point
20		! 14 Value at point
21		! 15 Time at point
19		! 16 Value at point
23		! 17 Time at point
19		! 18 Value at point
23		! 19 Time at point
16		! 20 Value at point
24		! 21 Time at point
16		! 22 Value at point
*------------------------------------------------------------------------------

* Model "schedule week" (Type 14)
* 

UNIT 34 TYPE 14	 schedule week
*$UNIT_NAME schedule week
*$MODEL .\Utility\Forcing Functions\Temperature\Type14e.tmf
*$POSITION 897 208
*$LAYER Main # 
PARAMETERS 24
0		! 1 Initial value of time
16		! 2 Initial temperature
6		! 3 Time at point
16		! 4 Value at point
6		! 5 Time at point
20		! 6 Value at point
8		! 7 Time at point
20		! 8 Value at point
8		! 9 Time at point
16		! 10 Value at point
17		! 11 Time at point
16		! 12 Value at point
17		! 13 Time at point
20		! 14 Value at point
21		! 15 Time at point
20		! 16 Value at point
21		! 17 Time at point
19		! 18 Value at point
22		! 19 Time at point
19		! 20 Value at point
22		! 21 Time at point
16		! 22 Value at point
24		! 23 Time at point
16		! 24 Value at point
*------------------------------------------------------------------------------

* Model "schedule week-2" (Type 14)
* 

UNIT 35 TYPE 14	 schedule week-2
*$UNIT_NAME schedule week-2
*$MODEL .\Utility\Forcing Functions\Temperature\Type14e.tmf
*$POSITION 895 592
*$LAYER Main # 
PARAMETERS 24
0		! 1 Initial value of time
14		! 2 Initial temperature
6		! 3 Time at point
14		! 4 Value at point
6		! 5 Time at point
18		! 6 Value at point
7		! 7 Time at point
18		! 8 Value at point
7		! 9 Time at point
20		! 10 Value at point
8		! 11 Time at point
20		! 12 Value at point
8		! 13 Time at point
14		! 14 Value at point
18		! 15 Time at point
14		! 16 Value at point
18		! 17 Time at point
19		! 18 Value at point
19		! 19 Time at point
19		! 20 Value at point
19		! 21 Time at point
14		! 22 Value at point
24		! 23 Time at point
14		! 24 Value at point
*------------------------------------------------------------------------------

* Model "schedule weekend-2" (Type 14)
* 

UNIT 36 TYPE 14	 schedule weekend-2
*$UNIT_NAME schedule weekend-2
*$MODEL .\Utility\Forcing Functions\Temperature\Type14e.tmf
*$POSITION 906 699
*$LAYER Main # 
PARAMETERS 28
0		! 1 Initial value of time
14		! 2 Initial temperature
6		! 3 Time at point
14		! 4 Value at point
6		! 5 Time at point
18		! 6 Value at point
8		! 7 Time at point
18		! 8 Value at point
8		! 9 Time at point
20		! 10 Value at point
9		! 11 Time at point
20		! 12 Value at point
9		! 13 Time at point
18		! 14 Value at point
10		! 15 Time at point
18		! 16 Value at point
10		! 17 Time at point
14		! 18 Value at point
17		! 19 Time at point
14		! 20 Value at point
17		! 21 Time at point
18		! 22 Value at point
18		! 23 Time at point
18		! 24 Value at point
18		! 25 Time at point
14		! 26 Value at point
24		! 27 Time at point
14		! 28 Value at point