VERSION 18
*******************************************************************************
*** TRNSYS input file (deck) generated by TrnsysStudio
*** on Friday, May 17, 2024 at 17:56
*** from TrnsysStudio project: C:\Users\20181270\OneDrive - TU Eindhoven\PhD\TRNSYS\Publication1\pub_1\src\wwhp_no_ss_buff.tpf
*** 
*** If you edit this file, use the File/Import TRNSYS Input File function in 
*** TrnsysStudio to update the project. 
*** 
*** If you have problems, questions or suggestions please contact your local 
*** TRNSYS distributor or mailto:software@cstb.fr 
*** 
*******************************************************************************


*******************************************************************************
*** Units 
*******************************************************************************

*******************************************************************************
*** Control cards
*******************************************************************************
* START, STOP and STEP
CONSTANTS 3
START=0
STOP=8760
STEP=6/60
SIMULATION 	 START	 STOP	 STEP	! Start time	End time	Time step
TOLERANCES 0.001 0.001			! Integration	 Convergence
LIMITS 1500 2000 1500				! Max iterations	Max warnings	Trace limit
DFQ 1					! TRNSYS numerical integration solver method
WIDTH 80				! TRNSYS output file width, number of characters
LIST 					! NOLIST statement
					! MAP statement
SOLVER 0 1 1				! Solver statement	Minimum relaxation factor	Maximum relaxation factor
NAN_CHECK 1				! Nan DEBUG statement
OVERWRITE_CHECK 1			! Overwrite DEBUG statement
TIME_REPORT 1			! enable time report statement
EQSOLVER 0				! EQUATION SOLVER statement
* User defined CONSTANTS 
*$USER_CONSTANTS
EQUATIONS 1
nPlots = (STOP-START)/168.
*$USER_CONSTANTS_END


* EQUATIONS "Parameters"
* 
EQUATIONS 23
infil_value = 1
flow_factor = 40
area_coll = 20
flow_rate_source = flow_factor*area_coll
pack_factor = 0.7
coll_eff = 0.7
max_batt_in = 0.01
max_batt_out = -0.01
dcv = 0.01
ccv = 125
cell_cap = 1
ncell = 1
charge_current = 1
discharge_current = -1
dhw_tank_vol = 0.25
db_low = 2
db_high = 10
flow_rate_load = 1400
sh_tank_vol = 0.3
operation_mode = 1
t1_low = 15
t1_high = 20
tset2_high = 18
*$UNIT_NAME Parameters
*$LAYER Main
*$POSITION 487 42
*$UNIT_NUMBER 47

*------------------------------------------------------------------------------


* Model "Type15-3" (Type 15)
* 

UNIT 48 TYPE 15	 Type15-3
*$UNIT_NAME Type15-3
*$MODEL .\Weather Data Reading and Processing\Standard Format\Energy+ Weather Files (EPW)\Type15-3.tmf
*$POSITION 53 218
*$LAYER Main # 
PARAMETERS 27
3		! 1 File Type
82		! 2 Logical unit
3		! 3 Tilted Surface Radiation Mode
0.2		! 4 Ground reflectance - no snow
0.7		! 5 Ground reflectance - snow cover
7		! 6 Number of surfaces
1		! 7 Tracking mode-1
0.0		! 8 Slope of surface-1
AA_H_0_0		! 9 Azimuth of surface-1
1		! 10 Tracking mode-2
47.2		! 11 Slope of surface-2
AA_S_0_45		! 12 Azimuth of surface-2
1		! 13 Tracking mode-3
90		! 14 Slope of surface-3
AA_S_0_90		! 15 Azimuth of surface-3
1		! 16 Tracking mode-4
90		! 17 Slope of surface-4
AA_W_90_90		! 18 Azimuth of surface-4
1		! 19 Tracking mode-5
47.2		! 20 Slope of surface-5
AA_N_180_45		! 21 Azimuth of surface-5
1		! 22 Tracking mode-6
90		! 23 Slope of surface-6
AA_N_180_90		! 24 Azimuth of surface-6
1		! 25 Tracking mode-7
90		! 26 Slope of surface-7
AA_E_270_90		! 27 Azimuth of surface-7
*** External files
ASSIGN "C:\TRNSYS18\Weather\Energy+\NLD_DBL_EPW_YR2018.epw" 82
*|? Which file contains the Energy+ weather data? |1000
*------------------------------------------------------------------------------

* Model "Type77" (Type 77)
* 

UNIT 49 TYPE 77	 Type77
*$UNIT_NAME Type77
*$MODEL .\Physical Phenomena\Simple Ground Temperature Model\Type77.tmf
*$POSITION 76 136
*$LAYER Main # 
PARAMETERS 8
1		! 1 Number of temperature nodes
T_MEAN		! 2 Mean surface temperature
T_AMPLITUDE		! 3 Amplitude of surface temperature
t_T_MIN		! 4 Time shift
8.72		! 5 Soil thermal conductivity
3200.0		! 6 Soil density
0.84		! 7 Soil specific heat
h_depth		! 8 Depth at point 
*------------------------------------------------------------------------------

* EQUATIONS "Radiation Unit Converter"
* 
EQUATIONS 31
AZEN = [48,16] ! [deg] solar zenith angle
AAZM = [48,17] ! [deg] solar azimuth angle
AAZM_TYPE56 = AAZM - (TURN) ! [deg] solar azimuth corrected by building rotation - Input for Type 56 sun position for SHM and ISM
AA_H_0_0 = 0 + TURN ! [deg] azimuth angle of orientation
AA_S_0_45 = 0 + TURN ! [deg] azimuth angle of orientation
AA_S_0_90 = 0 + TURN ! [deg] azimuth angle of orientation
AA_W_90_90 = 90 + TURN ! [deg] azimuth angle of orientation
AA_N_180_45 = 180 + TURN ! [deg] azimuth angle of orientation
AA_N_180_90 = 180 + TURN ! [deg] azimuth angle of orientation
AA_E_270_90 = 270 + TURN ! [deg] azimuth angle of orientation
IT_H_0_0 = [48,24]/3.6
IB_H_0_0 = [48,31]/3.6
AI_H_0_0 = [48,59]
IT_S_0_45 = [48,25]/3.6
IB_S_0_45 = [48,32]/3.6
AI_S_0_45 = [48,60]
IT_S_0_90 = [48,26]/3.6
IB_S_0_90 = [48,33]/3.6
AI_S_0_90 = [48,61]
IT_W_90_90 = [48,27]/3.6
IB_W_90_90 = [48,34]/3.6
AI_W_90_90 = [48,62]
IT_N_180_45 = [48,28]/3.6
IB_N_180_45 = [48,35]/3.6
AI_N_180_45 = [48,63]
IT_N_180_90 = [48,29]/3.6
IB_N_180_90 = [48,36]/3.6
AI_N_180_90 = [48,64]
IT_E_270_90 = [48,30]/3.6
IB_E_270_90 = [48,37]/3.6
AI_E_270_90 = [48,65]
*$UNIT_NAME Radiation Unit Converter
*$LAYER Main
*$POSITION 281 31
*$UNIT_NUMBER 51

*------------------------------------------------------------------------------


* EQUATIONS "Wizard Settings"
* 
EQUATIONS 12
HEMISPHERE = 1      ! hemisphere of weather data location (northern hemisphere: 1, southern hemisphere: -1)
TURN = HEMISPHERE * 0      ! rotation angle of scene (building & shaders) used for adapting azimuth angles
TBOUNDARY = 20      ! boundary temperature of surfaces (used by Type 56 - Multizone Building Model)
SHADE_CLOSE = 140 * 3.6      ! Close blinds - radiation on facade in [W/m2 * 3.6]=[kJ/hr] (used by Type 56 - Multizone Building Model)
SHADE_OPEN = 120 * 3.6      ! Open blinds - radiation on facade in [W/m2 * 3.6]=[kJ/hr] (used by Type 56 - Multizone Building Model)
MAX_ISHADE = 70/100      ! Maximum opaque fraction of internal shading device (used by Type 56 - Multizone Building Model)
MAX_ESHADE = 70/100      ! Maximum opaque fraction of external shading device (used by Type 56 - Multizone Building Model)
h_DEPTH = 1      ! ground temperature depth [m](used by Type 77 - Simple Ground Temperature Model)
T_MEAN = 9.1        ! mean annual ambient temperaure [C] (used by Type 77 - Simple Ground Temperature Model)
T_AMPLITUDE = 9.6      ! max. annual amplitude of ambient temperature [C] (used by Type 77 - Simple Ground Temperature Model)
t_T_MIN = 11      ! time shift of min. annual temperature [C] (used by Type 77 - Simple Ground Temperature Model)
WindDir = MOD([48,9]+TURN/HEMISPHERE,360) + LT([48,9]+TURN/HEMISPHERE,0)*(360)      ! wind direction corrected by scene rotation angle (0...360 deg)
*$UNIT_NAME Wizard Settings
*$LAYER Main
*$POSITION 63 31
*$UNIT_NUMBER 50

*------------------------------------------------------------------------------


* Model "Type3157" (Type 3157)
* 

UNIT 69 TYPE 3157	 Type3157
*$UNIT_NAME Type3157
*$MODEL .\TRNLib\Calling Python (CFFI)\Type3157.tmf
*$POSITION 1278 578
*$LAYER Main # 
PARAMETERS 4
0		! 1 Mode
18		! 2 Number of inputs
19		! 3 Number of outputs
1		! 4 Iteration Mode
INPUTS 18
54,1 		! Thermostat1:Control Signal ->ctrfloor1
55,1 		! Thermostat2:Control Signal ->ctrfloor2
70,1 		! tset_dhw:Control signal for heating ->dhw_stat
19,11 		! Type21:Hour of the day ->hour
19,7 		! Type21:Day of the week ->week
19,4 		! Type21:Calendar month ->month
53,1 		! ctr_irr:Output control function ->ctrIRR
0,0		! [unconnected] ssbuff_stat
59,1 		! Type9e:Output 1 ->dhw_load
0,0		! [unconnected] tavg_ssbuff
64,1 		! Type166:Control signal for heating ->ctrSHbuff
56,1 		! ctr_coll_t:Output control function ->ctr_coll_t
13,5 		! tank DHW:Average tank temperature ->tavg_dhw
62,1 		! pumpColl:Outlet fluid temperature ->tcoll_in
3,1 		! PV/T:Outlet fluid temperature ->tcoll_out
48,1 		! Type15-3:Dry bulb temperature ->tamb
69,18 		! Type3157:tset_dhw ->tset_dhw
operation_mode		! Parameters:operation_mode ->operation_mode
*** INITIAL INPUT VALUES
0 0 0 0 0 0 0 0 0 0 0 0 0 0 0 0 20 0 
LABELS 1
controls.py
*------------------------------------------------------------------------------

* Model "ip_parameters" (Type 25)
* 

UNIT 57 TYPE 25	 ip_parameters
*$UNIT_NAME ip_parameters
*$MODEL .\Output\Printer\Unformatted\No Units\Type25c.tmf
*$POSITION 1481 776
*$LAYER Outputs # 
PARAMETERS 10
STOP		! 1 Printing interval
STOP		! 2 Start time
STOP		! 3 Stop time
85		! 4 Logical unit
0		! 5 Units printing mode
0		! 6 Relative or absolute start time
-1		! 7 Overwrite or Append
-1		! 8 Print header
2		! 9 Delimiter
1		! 10 Print labels
INPUTS 5
area_coll		! Parameters:area_coll ->Input to be printed-1
flow_rate_source		! Parameters:flow_rate_source ->Input to be printed-2
dhw_tank_vol		! Parameters:dhw_tank_vol ->Input to be printed-3
sh_tank_vol		! Parameters:sh_tank_vol ->Input to be printed-4
0,0		! [unconnected] Input to be printed-5
*** INITIAL INPUT VALUES
area_coll flow_rate_source dhw_tank_vol sh_tank_vol ssbuff_tank_vol

*** External files
ASSIGN "res\trn\x_parameters.txt" 85
*|? Output file for printed results |1000
*------------------------------------------------------------------------------

* Model "Building" (Type 56)
* 

UNIT 52 TYPE 56	 Building
*$UNIT_NAME Building
*$MODEL .\Loads and Structures\Multi-Zone Building\Type56.tmf
*$POSITION 344 84
*$LAYER Main # 
*$#   
PARAMETERS 3
83		! 1 Logical unit for building description file (*.b18, *.b17, *.bui)
0		! 2 Star network calculation switch
0.50		! 3 Weighting factor for operative temperature
INPUTS 19
48,1 		! Type15-3:Dry bulb temperature -> 1- TAMB
48,7 		! Type15-3:Percent relative humidity -> 2- RELHUMAMB
48,4 		! Type15-3:Effective sky temperature -> 3- TSKY
48,1 		! Type15-3:Dry bulb temperature -> 4- TSGRD
48,16 		! Type15-3:Solar zenith angle -> 5- AZEN
AAZM_TYPE56		! Radiation Unit Converter:AAZM_TYPE56 -> 6- AAZM
48,107 		! Type15-3:Ground reflectance -> 7- GRDREF
49,1 		! Type77:Soil Temperature at Node  -> 8- TGROUND
TBOUNDARY		! Wizard Settings:TBOUNDARY -> 9- TBOUNDARY
SHADE_CLOSE		! Wizard Settings:SHADE_CLOSE -> 10- SHADE_CLOSE
SHADE_OPEN		! Wizard Settings:SHADE_OPEN -> 11- SHADE_OPEN
MAX_ISHADE		! Wizard Settings:MAX_ISHADE -> 12- MAX_ISHADE
MAX_ESHADE		! Wizard Settings:MAX_ESHADE -> 13- MAX_ESHADE
38,3 		! Radiator1:Heat Transfer Rate -> 14- Q_livingroom
39,3 		! Radiator2:Heat Transfer Rate -> 15- Q_bedroom1
0,0		! [unconnected]  16- Q_bedroom2
0,0		! [unconnected]  17- Vent_living
0,0		! [unconnected]  18- Vent_first
infil_value		! Parameters:infil_value -> 19- Infil
*** INITIAL INPUT VALUES
0 0 0 0 0 0 0 0 0 0 0 0 0 0 0 0 0 0 0 
*** External files
ASSIGN "House.b18" 83
*|? Building description file (*.b18, *.b17, *.bui) |1000
*------------------------------------------------------------------------------

* Model "ctr_irr" (Type 165)
* 

UNIT 53 TYPE 165	 ctr_irr
*$UNIT_NAME ctr_irr
*$MODEL .\Controllers\Differential Controller w_ Hysteresis\generic\Type165b.tmf
*$POSITION 150 466
*$LAYER Main # 
*$# 
*$# 
PARAMETERS 2
5		! 1 No. of oscillations
5400		! 2 High limit cut-out
INPUTS 5
48,25 		! Type15-3:Total tilted surface radiation for surface-2 ->Upper input Th
0,0		! [unconnected] Lower input  Tl
48,25 		! Type15-3:Total tilted surface radiation for surface-2 ->High limit monitoring input Tin
0,0		! [unconnected] Upper dead band dT
0,0		! [unconnected] Lower dead band dT
*** INITIAL INPUT VALUES
20.0 0 20.0 400 330 
*------------------------------------------------------------------------------

* Model "T/m" (Type 25)
* 

UNIT 41 TYPE 25	 T/m
*$UNIT_NAME T/m
*$MODEL .\Output\Printer\Unformatted\No Units\Type25c.tmf
*$POSITION 1481 375
*$LAYER Text # 
PARAMETERS 10
STEP		! 1 Printing interval
START		! 2 Start time
STOP		! 3 Stop time
80		! 4 Logical unit
0		! 5 Units printing mode
0		! 6 Relative or absolute start time
-1		! 7 Overwrite or Append
-1		! 8 Print header
2		! 9 Delimiter
1		! 10 Print labels
INPUTS 58
62,1 		! pumpColl:Outlet fluid temperature ->Input to be printed-1
3,1 		! PV/T:Outlet fluid temperature ->Input to be printed-2
4,1 		! divPVT:Temperature at outlet 1 ->Input to be printed-3
63,1 		! HX:Source side outlet temperature ->Input to be printed-4
4,3 		! divPVT:Temperature at outlet 2 ->Input to be printed-5
7,1 		! HP:Outlet Source Temperature ->Input to be printed-6
62,2 		! pumpColl:Outlet flow rate ->Input to be printed-7
65,2 		! mixPVT:Outlet flow rate ->Input to be printed-8
63,3 		! HX:Load side outlet temperature ->Input to be printed-9
7,3 		! HP:Outlet Load Temperature ->Input to be printed-10
67,1 		! divHeatSource:Temperature at outlet 1 ->Input to be printed-11
67,3 		! divHeatSource:Temperature at outlet 2 ->Input to be printed-12
66,1 		! mixHeatSource:Outlet temperature ->Input to be printed-13
66,2 		! mixHeatSource:Outlet flow rate ->Input to be printed-14
25,1 		! divLoad:Temperature at outlet 1 ->Input to be printed-15
24,1 		! tank SH:Temperature at outlet 1 ->Input to be printed-16
25,2 		! divLoad:Flow rate at outlet 1 ->Input to be printed-17
25,3 		! divLoad:Temperature at outlet 2 ->Input to be printed-18
13,1 		! tank DHW:Temperature at outlet 1 ->Input to be printed-19
25,4 		! divLoad:Flow rate at outlet 2 ->Input to be printed-20
68,1 		! mixLoa d:Outlet temperature ->Input to be printed-21
68,2 		! mixLoa d:Outlet flow rate ->Input to be printed-22
24,15 		! tank SH:Tank nodal temperature-1 ->Input to be printed-23
24,5 		! tank SH:Average tank temperature ->Input to be printed-24
24,20 		! tank SH:Tank nodal temperature-6 ->Input to be printed-25
24,3 		! tank SH:Temperature at outlet 2 ->Input to be printed-26
24,4 		! tank SH:Flow rate at outlet 2 ->Input to be printed-27
28,1 		! div SH:Temperature at outlet 1 ->Input to be printed-28
28,2 		! div SH:Flow rate at outlet 1 ->Input to be printed-29
28,3 		! div SH:Temperature at outlet 2 ->Input to be printed-30
28,4 		! div SH:Flow rate at outlet 2 ->Input to be printed-31
38,1 		! Radiator1:Liquid Outlet Temperature ->Input to be printed-32
39,1 		! Radiator2:Liquid Outlet Temperature ->Input to be printed-33
31,1 		! MixerRad:Outlet temperature ->Input to be printed-34
31,2 		! MixerRad:Outlet flow rate ->Input to be printed-35
13,15 		! tank DHW:Tank nodal temperature-1 ->Input to be printed-36
13,5 		! tank DHW:Average tank temperature ->Input to be printed-37
13,20 		! tank DHW:Tank nodal temperature-6 ->Input to be printed-38
mdDHW		! Daily load:mdDHW ->Input to be printed-39
14,1 		! div:Temperature at outlet 1 ->Input to be printed-40
14,2 		! div:Flow rate at outlet 1 ->Input to be printed-41
14,3 		! div:Temperature at outlet 2 ->Input to be printed-42
14,4 		! div:Flow rate at outlet 2 ->Input to be printed-43
13,3 		! tank DHW:Temperature at outlet 2 ->Input to be printed-44
13,4 		! tank DHW:Flow rate at outlet 2 ->Input to be printed-45
16,1 		! mix:Outlet temperature ->Input to be printed-46
16,2 		! mix:Outlet flow rate ->Input to be printed-47
48,1 		! Type15-3:Dry bulb temperature ->Input to be printed-48
52,73 		! Building: 73- TAIR_BG_living_room1 ->Input to be printed-49
52,74 		! Building: 74- TOP_BG_living_room1 ->Input to be printed-50
52,1 		! Building: 1- TAIR_BG_Living_room2 ->Input to be printed-51
52,2 		! Building: 2- TOP_BG_Living_room2 ->Input to be printed-52
52,35 		! Building: 35- TAIR_1e_Bedroom1 ->Input to be printed-53
52,36 		! Building: 36- TOP_1e_Bedroom1 ->Input to be printed-54
32,1 		! setpoint floor1:Forcing function output for current day ->Input to be printed-55
37,1 		! setpoint floor 2:Forcing function output for current day ->Input to be printed-56
71,1 		! hpAux-2:Outlet fluid temperature ->Input to be printed-57
71,2 		! hpAux-2:Outlet fluid flow rate ->Input to be printed-58
*** INITIAL INPUT VALUES
Tcoll_in Tcoll_out Thx_source_in Thx_source_out Thp_source_in Thp_source_out
mcoll_in mmix_pvt_out Thx_load_out Thp_load_out Thx_load_in Thp_load_in
Tmix_HS_out mmix_HS_out Tsh_source_in Tsh_source_out msh_source Tdhw_source_in
Tdhw_source_out mdhw_source Tmix_load_out mmix_load_out T1_sh Tavg_sh
T6_sh Tsh_load_out msh_load_out Trad1_in mrad1_in Trad2_in mrad2_in
Trad1_out Trad2_out Trad_mix_out mrad_mix_out T1_dhw Tavg_dhw T6_dhw
mdemand Tdraw2tank mdraw2tank Tdraw2tap mdraw2tap Tdhw_load_out mdhw_load_out
Tat_tap mat_tap Tamb Tfloor1_air Tfloor1 Tfloor1_2_air Tfloor1_2_op
Tfloor2_air Tfloor2 Tset1 Tset2 Thp_aux_out mhp_aux_out 
*** External files
ASSIGN "res\trn\x_temp_flow.txt" 80
*|? Output file for printed results |1000
*------------------------------------------------------------------------------

* Model "PV/T" (Type 50)
* 

UNIT 3 TYPE 50	 PV/T
*$UNIT_NAME PV/T
*$MODEL .\Solar Thermal Collectors\PV-Thermal Collectors\Flat Plate Collectors\Loss=f(T,WS,G) and t=f(angle)\Type50d.tmf
*$POSITION 141 211
*$LAYER Main # 
PARAMETERS 13
4		! 1 Mode
area_coll		! 2 Collector Area
coll_eff		! 3 Collector Efficiency Factor
3.75		! 4 Fluid Thermal Capacitance
0.9		! 5 Collector plate absorptance
1		! 6 Number of glass covers
0.9		! 7 Collector plate emittance
20		! 8 Loss coefficient for bottom and edge losses
45		! 9 Collector slope
0.03		! 10 Extinction coefficient thickness product
-0.0003		! 11 Temperature coefficient of PV cell efficiency
20		! 12 Temperature for cell reference efficiency
pack_factor		! 13 Packing factor
INPUTS 8
62,1 		! pumpColl:Outlet fluid temperature ->Inlet fluid temperature
62,2 		! pumpColl:Outlet flow rate ->Fluid mass flow rate
48,1 		! Type15-3:Dry bulb temperature ->Ambient temperature
48,32 		! Type15-3:Beam radiation for surface-2 ->Incident beam radiation
48,53 		! Type15-3:Total diffuse radiation for surface-2 ->Incident diffuse radiation
48,60 		! Type15-3:Angle of incidence for surface-2 ->Incidence angle of beam radiation
48,8 		! Type15-3:Wind velocity ->Windspeed
0,0		! [unconnected] Cell Efficiency at reference conditions
*** INITIAL INPUT VALUES
10 160 0 0 0 0 0 0.2 
*------------------------------------------------------------------------------

* Model "energyflows" (Type 25)
* 

UNIT 40 TYPE 25	 energyflows
*$UNIT_NAME energyflows
*$MODEL .\Output\Printer\Unformatted\No Units\Type25c.tmf
*$POSITION 1481 158
*$LAYER Text # 
PARAMETERS 10
STEP		! 1 Printing interval
START		! 2 Start time
STOP		! 3 Stop time
79		! 4 Logical unit
0		! 5 Units printing mode
0		! 6 Relative or absolute start time
-1		! 7 Overwrite or Append
-1		! 8 Print header
2		! 9 Delimiter
1		! 10 Print labels
INPUTS 45
48,25 		! Type15-3:Total tilted surface radiation for surface-2 ->Input to be printed-1
3,3 		! PV/T:Rate of useful energy gain ->Input to be printed-2
7,6 		! HP:Heat Transfer from Source ->Input to be printed-3
7,5 		! HP:Heat Transfer to Load ->Input to be printed-4
7,7 		! HP:Heat Pump Power ->Input to be printed-5
7,8 		! HP:Coefficient of Performance (C.O.P.) ->Input to be printed-6
24,6 		! tank SH:Energy delivered via port 1 ->Input to be printed-7
24,7 		! tank SH:Energy delivered via port 2 ->Input to be printed-8
13,6 		! tank DHW:Energy delivered via port 1 ->Input to be printed-9
13,7 		! tank DHW:Energy delivered via port 2 ->Input to be printed-10
38,3 		! Radiator1:Heat Transfer Rate ->Input to be printed-11
39,3 		! Radiator2:Heat Transfer Rate ->Input to be printed-12
71,3 		! hpAux-2:Rate of energy delivery to fluid stream ->Input to be printed-13
13,11 		! tank DHW:Auxiliary heating rate ->Input to be printed-14
3,6 		! PV/T:Electrical power output ->Input to be printed-15
44,2 		! Type48c:Power to or from battery ->Input to be printed-16
total_load		! load:total_load ->Input to be printed-17
44,3 		! Type48c:Power to load ->Input to be printed-18
44,5 		! Type48c:Power from grid ->Input to be printed-19
45,2 		! Type47b:Fractional state of charge ->Input to be printed-20
52,4 		! Building: 4- QELEQUIP_BG_Living_room2 ->Input to be printed-21
52,5 		! Building: 5- QELLIGHT_BG_Living_room2 ->Input to be printed-22
52,15 		! Building: 15- QELEQUIP_BG_Entree ->Input to be printed-23
52,16 		! Building: 16- QELLIGHT_BG_Entree ->Input to be printed-24
52,21 		! Building: 21- QELEQUIP_BG_Kitchen ->Input to be printed-25
52,22 		! Building: 22- QELLIGHT_BG_Kitchen ->Input to be printed-26
52,27 		! Building: 27- QELEQUIP_1e_Bedroom3 ->Input to be printed-27
52,28 		! Building: 28- QELLIGHT_1e_Bedroom3 ->Input to be printed-28
52,33 		! Building: 33- QELEQUIP_1e_Stairwell ->Input to be printed-29
52,34 		! Building: 34- QELLIGHT_1e_Stairwell ->Input to be printed-30
52,39 		! Building: 39- QELEQUIP_1e_Bedroom1 ->Input to be printed-31
52,40 		! Building: 40- QELLIGHT_1e_Bedroom1 ->Input to be printed-32
52,47 		! Building: 47- QELEQUIP_1e_Bedroom2 ->Input to be printed-33
52,48 		! Building: 48- QELLIGHT_1e_Bedroom2 ->Input to be printed-34
52,65 		! Building: 65- QELEQUIP_Attic1 ->Input to be printed-35
52,66 		! Building: 66- QELLIGHT_Attic1 ->Input to be printed-36
52,77 		! Building: 77- QELEQUIP_BG_living_room1 ->Input to be printed-37
52,78 		! Building: 78- QELLIGHT_BG_living_room1 ->Input to be printed-38
52,3 		! Building: 3- QHEAT_BG_Living_room2 ->Input to be printed-39
52,75 		! Building: 75- QHEAT_BG_living_room1 ->Input to be printed-40
52,37 		! Building: 37- QHEAT_1e_Bedroom1 ->Input to be printed-41
52,45 		! Building: 45- QHEAT_1e_Bedroom2 ->Input to be printed-42
44,4 		! Type48c:Dumped generated power ->Input to be printed-43
44,1 		! Type48c:Power in from generation ->Input to be printed-44
63,5 		! HX:Heat transfer rate ->Input to be printed-45
*** INITIAL INPUT VALUES
Qirr QuColl Qhp_source Qhp_load Qhp COP Qsh_buff_source Qsh_buff_load
Qdhw_source Qdhw_load Qrad1 Qrad2 Qaux_hp Qaux_dhw Qpv Qbatt_tofrom
Qload Q2load Qfrom_grid SOC dev_living2 ltg_living2 dev_entree ltg_entree
dev_kitchen ltg_kitchen dev_bed3 ltg_bed3 dev_bath ltg_bath dev_bed1
ltg_bed1 dev_bed2 ltg_bed2 dev_attic ltg_attic dev_living1 ltg_living1
Qheat_living2 Qheat_living1 Qheat_bed1 Qheat_bed2 Q2grid Qpv_inverter
Qhx 
*** External files
ASSIGN "res\trn\x_energy.txt" 79
*|? Output file for printed results |1000
*------------------------------------------------------------------------------

* Model "controls" (Type 25)
* 

UNIT 42 TYPE 25	 controls
*$UNIT_NAME controls
*$MODEL .\Output\Printer\Unformatted\No Units\Type25c.tmf
*$POSITION 1481 660
*$LAYER Text # 
PARAMETERS 10
STEP		! 1 Printing interval
START		! 2 Start time
STOP		! 3 Stop time
81		! 4 Logical unit
0		! 5 Units printing mode
0		! 6 Relative or absolute start time
-1		! 7 Overwrite or Append
-1		! 8 Print header
2		! 9 Delimiter
1		! 10 Print labels
INPUTS 22
69,1 		! Type3157:ctrfloor1 ->ctrfloor1
69,2 		! Type3157:ctrfloor2 ->ctrfloor2
69,3 		! Type3157:heating_season ->heating_season
69,4 		! Type3157:ctr_sh ->ctr_sh
69,5 		! Type3157:sh_div ->sh_div
69,6 		! Type3157:ctr_sh_biff ->ctr_buff
69,7 		! Type3157:night ->night
69,8 		! Type3157:legionella ->legionella
69,9 		! Type3157:ctr_dhw ->ctr_dhw
69,10 		! Type3157:demand ->demand
69,11 		! Type3157:coll_pump ->coll_pump
69,12 		! Type3157:dhw_demand ->dhw_demand
69,13 		! Type3157:hx_bypass ->hx_bypass
69,14 		! Type3157:load_hx_bypass ->load_hx_bypass
69,15 		! Type3157:ctr_hp ->ctr_hp
69,16 		! Type3157:div_load ->div_load
69,17 		! Type3157:aux_set ->aux_set
69,18 		! Type3157:tset_dhw ->tset_dhw
53,1 		! ctr_irr:Output control function ->ctr_irr
56,1 		! ctr_coll_t:Output control function ->ctr_coll_t
70,1 		! tset_dhw:Control signal for heating ->dhw_stat
mdDHW		! Daily load:mdDHW ->dhw_load
*** INITIAL INPUT VALUES
ctrfloor1 ctrfloor2 heating_season ctr_sh sh_div ctr_sh_buff night
legionella ctr_dhw demand coll_pump dhw_demand hx_bypass load_hx_bypass
ctr_hp div_load aux_set tset_dhw ctr_irr ctr_coll_t dhw_stat dhw_load

*** External files
ASSIGN "res\trn\x_control_signal.txt" 81
*|? Output file for printed results |1000
*------------------------------------------------------------------------------

* Model "divHeatSource" (Type 11)
* 

UNIT 67 TYPE 11	 divHeatSource
*$UNIT_NAME divHeatSource
*$MODEL .\Hydronics\Flow Diverter\Other Fluids\Type11f.tmf
*$POSITION 637 709
*$LAYER Main # 
PARAMETERS 1
2		! 1 Flow diverter mode
INPUTS 3
58,1 		! pumpLoad:Outlet fluid temperature ->Inlet temperature
58,2 		! pumpLoad:Outlet flow rate ->Inlet flow rate
69,14 		! Type3157:load_hx_bypass ->Control signal
*** INITIAL INPUT VALUES
20.0 0 0 
*------------------------------------------------------------------------------

* Model "pumpLoad" (Type 110)
* 

UNIT 58 TYPE 110	 pumpLoad
*$UNIT_NAME pumpLoad
*$MODEL .\Hydronics\Pumps\Variable Speed\Type110.tmf
*$POSITION 766 708
*$LAYER Main # 
*$# VARIABLE-SPEED PUMP
PARAMETERS 6
flow_rate_load		! 1 Rated flow rate
4.19		! 2 Fluid specific heat
2684.0		! 3 Rated power
0.0		! 4 Motor heat loss fraction
1		! 5 Number of power coefficients
1.0		! 6 Power coefficient
INPUTS 5
68,1 		! mixLoa d:Outlet temperature ->Inlet fluid temperature
68,2 		! mixLoa d:Outlet flow rate ->Inlet fluid flow rate
69,10 		! Type3157:demand ->Control signal
0,0		! [unconnected] Total pump efficiency
0,0		! [unconnected] Motor efficiency
*** INITIAL INPUT VALUES
20.0 0.0 1.0 1 1 
*------------------------------------------------------------------------------

* Model "Type21" (Type 21)
* 

UNIT 19 TYPE 21	 Type21
*$UNIT_NAME Type21
*$MODEL .\Utility\Time Values\Type21.tmf
*$POSITION 227 95
*$LAYER Main # 
PARAMETERS 2
1		! 1 Mode
0		! 2 Relative time?
*------------------------------------------------------------------------------

* Model "Type9e" (Type 9)
* 

UNIT 59 TYPE 9	 Type9e
*$UNIT_NAME Type9e
*$MODEL .\Utility\Data Readers\Generic Data Files\Expert Mode\Free Format\Type9e.tmf
*$POSITION 213 482
*$LAYER Weather - Data Files # 
PARAMETERS 10
2		! 1 Mode
0		! 2 Header Lines to Skip
1		! 3 No. of values to read
0.1		! 4 Time interval of data
-1		! 5 Interpolate or not
1.0		! 6 Multiplication factor
0		! 7 Addition factor
0		! 8 Average or instantaneous value
84		! 9 Logical unit for input file
-1		! 10 Free format mode
*** External files
ASSIGN "water_draw\DHW0002_1\DHW0002_1_DHW.txt" 84
*|? Input file name |1000
*------------------------------------------------------------------------------

* EQUATIONS "Daily load"
* 
EQUATIONS 2
mdDHW = [59,1]       ! consumption everytimestep in kg/hr
TCold = 15
*$UNIT_NAME Daily load
*$LAYER Main
*$POSITION 368 485
*$UNIT_NUMBER 17

*------------------------------------------------------------------------------


* EQUATIONS "qAux_dhw"
* 
EQUATIONS 1
qAux_dhw = and([12,1], gt(mdDHW,0)) * 5400
*$UNIT_NAME qAux_dhw
*$LAYER Main
*$POSITION 406 106
*$UNIT_NUMBER 11

*------------------------------------------------------------------------------


* Model "tempering" (Type 115)
* 

UNIT 15 TYPE 115	 tempering
*$UNIT_NAME tempering
*$MODEL .\Controllers\Tempering Valve Control\Heating Mode\Type115.tmf
*$POSITION 487 381
*$LAYER Outputs # 
PARAMETERS 1
5		! 1 # Oscillations Permitted
INPUTS 3
0,0		! [unconnected] Setpoint Temperature
13,3 		! tank DHW:Temperature at outlet 2 ->Source Temperature
TCold		! Daily load:TCold ->Tempering Fluid Temperature (Return Temperature)
*** INITIAL INPUT VALUES
45 10.0 20.0 
*------------------------------------------------------------------------------

* Model "div" (Type 11)
* 

UNIT 14 TYPE 11	 div
*$UNIT_NAME div
*$MODEL .\Hydronics\Flow Diverter\Other Fluids\Type11f.tmf
*$POSITION 510 482
*$LAYER Main # 
PARAMETERS 1
2		! 1 Flow diverter mode
INPUTS 3
TCold		! Daily load:TCold ->Inlet temperature
mdDHW		! Daily load:mdDHW ->Inlet flow rate
15,2 		! tempering:Fraction to Bypass Heat Source ->Control signal
*** INITIAL INPUT VALUES
20.0 100.0 0.5 
*------------------------------------------------------------------------------

* Model "tank DHW" (Type 158)
* 

UNIT 13 TYPE 158	 tank DHW
*$UNIT_NAME tank DHW
*$MODEL .\Thermal Storage\Constant Volume Liquid Storage\Vertical Tank\No HX\Type158.tmf
*$POSITION 499 255
*$LAYER Main # 
*$# Cylindrical Storage Tank
PARAMETERS 17
dhw_tank_vol		! 1 Tank volume
1.8		! 2 Tank height
6		! 3 Number of tank nodes
2.5		! 4 Top loss coefficient
2.5		! 5 Edge loss coefficient
2.5		! 6 Bottom loss coefficient
4.19		! 7 Fluid specific heat
1000		! 8 Fluid density
2.224		! 9 Fluid thermal conductivity
0.67		! 10 Height fraction of inlet 1
0.		! 11 Height fraction of outlet 1
0.		! 12 Height fraction of inlet 2
1.		! 13 Height fraction of outlet 2
1		! 14 Number of thermostats
1		! 15 Height fraction of thermostat
1		! 16 Number of auxiliary heat inputs
0.9		! 17 Height fraction of auxiliary input
INPUTS 8
25,3 		! divLoad:Temperature at outlet 2 ->Inlet temperature for port 1
25,4 		! divLoad:Flow rate at outlet 2 ->Inlet flow rate for port 1
14,1 		! div:Temperature at outlet 1 ->Inlet temperature for port 2
14,2 		! div:Flow rate at outlet 1 ->Inlet flow rate for port 2
0,0		! [unconnected] Top loss temperature
0,0		! [unconnected] Edge loss temperature
0,0		! [unconnected] Bottom loss temperature
qAux_dhw		! qAux_dhw:qAux_dhw ->Auxiliary heat input
*** INITIAL INPUT VALUES
20. 0. 20. 0. 20. 20. 20. 0 
DERIVATIVES 6
20.		! 1 Initial tank temperature for node-1
20.		! 2 Initial tank temperature for node-2
20.		! 3 Initial tank temperature for node-3
20.		! 4 Initial tank temperature for node-4
20.		! 5 Initial tank temperature for node-5
20.		! 6 Initial tank temperature for node-6
*------------------------------------------------------------------------------

* Model "mix" (Type 11)
* 

UNIT 16 TYPE 11	 mix
*$UNIT_NAME mix
*$MODEL .\Hydronics\Tee-Piece Flow Mixer\Other Fluids\Type11h.tmf
*$POSITION 796 362
*$LAYER Main # 
PARAMETERS 1
1		! 1 Tee piece mode
INPUTS 4
13,3 		! tank DHW:Temperature at outlet 2 ->Temperature at inlet 1
13,4 		! tank DHW:Flow rate at outlet 2 ->Flow rate at inlet 1