VERSION 18
*******************************************************************************
*** TRNSYS input file (deck) generated by TrnsysStudio
*** on Friday, October 20, 2023 at 12:02
*** from TrnsysStudio project: C:\Users\20181270\OneDrive - TU Eindhoven\PhD\TRNSYS\Publication1\pub_1\src\ashp.tpf
*** 
*** If you edit this file, use the File/Import TRNSYS Input File function in 
*** TrnsysStudio to update the project. 
*** 
*** If you have problems, questions or suggestions please contact your local 
*** TRNSYS distributor or mailto:software@cstb.fr 
*** 
*******************************************************************************


*******************************************************************************
*** Units 
*******************************************************************************

*******************************************************************************
*** Control cards
*******************************************************************************
* START, STOP and STEP
CONSTANTS 3
START=0
STOP=8760
STEP=6/60
SIMULATION 	 START	 STOP	 STEP	! Start time	End time	Time step
TOLERANCES 0.01 0.01			! Integration	 Convergence
LIMITS 1500 3000 1500				! Max iterations	Max warnings	Trace limit
DFQ 1					! TRNSYS numerical integration solver method
WIDTH 80				! TRNSYS output file width, number of characters
LIST 					! NOLIST statement
					! MAP statement
SOLVER 0 1 1				! Solver statement	Minimum relaxation factor	Maximum relaxation factor
NAN_CHECK 1				! Nan DEBUG statement
OVERWRITE_CHECK 1			! Overwrite DEBUG statement
TIME_REPORT 1			! enable time report statement
EQSOLVER 0				! EQUATION SOLVER statement
* User defined CONSTANTS 
*$USER_CONSTANTS

*$USER_CONSTANTS_END


* Model "Type15-3" (Type 15)
* 

UNIT 8 TYPE 15	 Type15-3
*$UNIT_NAME Type15-3
*$MODEL .\Weather Data Reading and Processing\Standard Format\Energy+ Weather Files (EPW)\Type15-3.tmf
*$POSITION 53 218
*$LAYER Main # 
PARAMETERS 27
3		! 1 File Type
84		! 2 Logical unit
3		! 3 Tilted Surface Radiation Mode
0.2		! 4 Ground reflectance - no snow
0.7		! 5 Ground reflectance - snow cover
7		! 6 Number of surfaces
1		! 7 Tracking mode-1
0.0		! 8 Slope of surface-1
AA_H_0_0		! 9 Azimuth of surface-1
1		! 10 Tracking mode-2
47.2		! 11 Slope of surface-2
AA_S_0_45		! 12 Azimuth of surface-2
1		! 13 Tracking mode-3
90		! 14 Slope of surface-3
AA_S_0_90		! 15 Azimuth of surface-3
1		! 16 Tracking mode-4
90		! 17 Slope of surface-4
AA_W_90_90		! 18 Azimuth of surface-4
1		! 19 Tracking mode-5
47.2		! 20 Slope of surface-5
AA_N_180_45		! 21 Azimuth of surface-5
1		! 22 Tracking mode-6
90		! 23 Slope of surface-6
AA_N_180_90		! 24 Azimuth of surface-6
1		! 25 Tracking mode-7
90		! 26 Slope of surface-7
AA_E_270_90		! 27 Azimuth of surface-7
*** External files
ASSIGN "C:\TRNSYS18\Weather\Energy+\NLD_Amsterdam.062400_IWEC.epw" 84
*|? Which file contains the Energy+ weather data? |1000
*------------------------------------------------------------------------------

* Model "Type77" (Type 77)
* 

UNIT 9 TYPE 77	 Type77
*$UNIT_NAME Type77
*$MODEL .\Physical Phenomena\Simple Ground Temperature Model\Type77.tmf
*$POSITION 76 136
*$LAYER Main # 
PARAMETERS 8
1		! 1 Number of temperature nodes
T_MEAN		! 2 Mean surface temperature
T_AMPLITUDE		! 3 Amplitude of surface temperature
t_T_MIN		! 4 Time shift
8.72		! 5 Soil thermal conductivity
3200.0		! 6 Soil density
0.84		! 7 Soil specific heat
h_depth		! 8 Depth at point 
*------------------------------------------------------------------------------

* EQUATIONS "Radiation Unit Converter"
* 
EQUATIONS 31
AZEN = [8,16] ! [deg] solar zenith angle
AAZM = [8,17] ! [deg] solar azimuth angle
AAZM_TYPE56 = AAZM - (TURN) ! [deg] solar azimuth corrected by building rotation - Input for Type 56 sun position for SHM and ISM
AA_H_0_0 = 0 + TURN ! [deg] azimuth angle of orientation
AA_S_0_45 = 0 + TURN ! [deg] azimuth angle of orientation
AA_S_0_90 = 0 + TURN ! [deg] azimuth angle of orientation
AA_W_90_90 = 90 + TURN ! [deg] azimuth angle of orientation
AA_N_180_45 = 180 + TURN ! [deg] azimuth angle of orientation
AA_N_180_90 = 180 + TURN ! [deg] azimuth angle of orientation
AA_E_270_90 = 270 + TURN ! [deg] azimuth angle of orientation
IT_H_0_0 = [8,24]/3.6
IB_H_0_0 = [8,31]/3.6
AI_H_0_0 = [8,59]
IT_S_0_45 = [8,25]/3.6
IB_S_0_45 = [8,32]/3.6
AI_S_0_45 = [8,60]
IT_S_0_90 = [8,26]/3.6
IB_S_0_90 = [8,33]/3.6
AI_S_0_90 = [8,61]
IT_W_90_90 = [8,27]/3.6
IB_W_90_90 = [8,34]/3.6
AI_W_90_90 = [8,62]
IT_N_180_45 = [8,28]/3.6
IB_N_180_45 = [8,35]/3.6
AI_N_180_45 = [8,63]
IT_N_180_90 = [8,29]/3.6
IB_N_180_90 = [8,36]/3.6
AI_N_180_90 = [8,64]
IT_E_270_90 = [8,30]/3.6
IB_E_270_90 = [8,37]/3.6
AI_E_270_90 = [8,65]
*$UNIT_NAME Radiation Unit Converter
*$LAYER Main
*$POSITION 281 31
*$UNIT_NUMBER 11

*------------------------------------------------------------------------------


* EQUATIONS "Wizard Settings"
* 
EQUATIONS 12
HEMISPHERE = 1      ! hemisphere of weather data location (northern hemisphere: 1, southern hemisphere: -1)
TURN = HEMISPHERE * 0      ! rotation angle of scene (building & shaders) used for adapting azimuth angles
TBOUNDARY = 20      ! boundary temperature of surfaces (used by Type 56 - Multizone Building Model)
SHADE_CLOSE = 140 * 3.6      ! Close blinds - radiation on facade in [W/m2 * 3.6]=[kJ/hr] (used by Type 56 - Multizone Building Model)
SHADE_OPEN = 120 * 3.6      ! Open blinds - radiation on facade in [W/m2 * 3.6]=[kJ/hr] (used by Type 56 - Multizone Building Model)
MAX_ISHADE = 70/100      ! Maximum opaque fraction of internal shading device (used by Type 56 - Multizone Building Model)
MAX_ESHADE = 70/100      ! Maximum opaque fraction of external shading device (used by Type 56 - Multizone Building Model)
h_DEPTH = 1      ! ground temperature depth [m](used by Type 77 - Simple Ground Temperature Model)
T_MEAN = 9.1        ! mean annual ambient temperaure [C] (used by Type 77 - Simple Ground Temperature Model)
T_AMPLITUDE = 9.6      ! max. annual amplitude of ambient temperature [C] (used by Type 77 - Simple Ground Temperature Model)
t_T_MIN = 11      ! time shift of min. annual temperature [C] (used by Type 77 - Simple Ground Temperature Model)
WindDir = MOD([8,9]+TURN/HEMISPHERE,360) + LT([8,9]+TURN/HEMISPHERE,0)*(360)      ! wind direction corrected by scene rotation angle (0...360 deg)
*$UNIT_NAME Wizard Settings
*$LAYER Main
*$POSITION 63 31
*$UNIT_NUMBER 10

*------------------------------------------------------------------------------


* EQUATIONS "Parameters"
* 
EQUATIONS 18
infil_value = py_inf
flow_rate_source = flow_factor*area_coll
area_coll = py_area_coll
pack_factor = py_pack
coll_eff = py_coll_eff
max_batt_in = py_max_batt_in
max_batt_out = py_max_batt_out
dcv = py_dcv
ccv = py_ccv
cell_cap = py_cell_cap
ncell = py_ncell
charge_current = py_charge_current
discharge_current = py_discharge_current
tank_vol = py_vol
db_low = py_db_low
db_high = py_db_high
flow_rate_load = 1400
flow_factor = 0
*$UNIT_NAME Parameters
*$LAYER Main
*$POSITION 412 74
*$UNIT_NUMBER 13

*------------------------------------------------------------------------------


* Model "schedule weekend" (Type 14)
* 

UNIT 42 TYPE 14	 schedule weekend
*$UNIT_NAME schedule weekend
*$MODEL .\Utility\Forcing Functions\Temperature\Type14e.tmf
*$POSITION 1529 340
*$LAYER Main # 
PARAMETERS 22
0		! 1 Initial value of time
16		! 2 Initial temperature
6		! 3 Time at point
16		! 4 Value at point
8		! 5 Time at point
16		! 6 Value at point
8		! 7 Time at point
21		! 8 Value at point
10		! 9 Time at point
21		! 10 Value at point
10		! 11 Time at point
20		! 12 Value at point
21		! 13 Time at point
20		! 14 Value at point
21		! 15 Time at point
19		! 16 Value at point
23		! 17 Time at point
19		! 18 Value at point
23		! 19 Time at point
16		! 20 Value at point
24		! 21 Time at point
16		! 22 Value at point
*------------------------------------------------------------------------------

* Model "schedule week" (Type 14)
* 

UNIT 43 TYPE 14	 schedule week
*$UNIT_NAME schedule week
*$MODEL .\Utility\Forcing Functions\Temperature\Type14e.tmf
*$POSITION 1526 244
*$LAYER Main # 
PARAMETERS 24
0		! 1 Initial value of time
16		! 2 Initial temperature
6		! 3 Time at point
16		! 4 Value at point
6		! 5 Time at point
20		! 6 Value at point
8		! 7 Time at point
20		! 8 Value at point
8		! 9 Time at point
16		! 10 Value at point
17		! 11 Time at point
16		! 12 Value at point
17		! 13 Time at point
20		! 14 Value at point
21		! 15 Time at point
20		! 16 Value at point
21		! 17 Time at point
19		! 18 Value at point
22		! 19 Time at point
19		! 20 Value at point
22		! 21 Time at point
16		! 22 Value at point
24		! 23 Time at point
16		! 24 Value at point
*------------------------------------------------------------------------------

* Model "schedule week-2" (Type 14)
* 

UNIT 44 TYPE 14	 schedule week-2
*$UNIT_NAME schedule week-2
*$MODEL .\Utility\Forcing Functions\Temperature\Type14e.tmf
*$POSITION 1524 503
*$LAYER Main # 
PARAMETERS 24
0		! 1 Initial value of time
14		! 2 Initial temperature
6		! 3 Time at point
14		! 4 Value at point
6		! 5 Time at point
18		! 6 Value at point
7		! 7 Time at point
18		! 8 Value at point
7		! 9 Time at point
20		! 10 Value at point
8		! 11 Time at point
20		! 12 Value at point
8		! 13 Time at point
14		! 14 Value at point
18		! 15 Time at point
14		! 16 Value at point
18		! 17 Time at point
19		! 18 Value at point
19		! 19 Time at point
19		! 20 Value at point
19		! 21 Time at point
14		! 22 Value at point
24		! 23 Time at point
14		! 24 Value at point
*------------------------------------------------------------------------------

* Model "schedule weekend-2" (Type 14)
* 

UNIT 45 TYPE 14	 schedule weekend-2
*$UNIT_NAME schedule weekend-2
*$MODEL .\Utility\Forcing Functions\Temperature\Type14e.tmf
*$POSITION 1535 610
*$LAYER Main # 
PARAMETERS 28
0		! 1 Initial value of time
14		! 2 Initial temperature
6		! 3 Time at point
14		! 4 Value at point
6		! 5 Time at point
18		! 6 Value at point
8		! 7 Time at point
18		! 8 Value at point
8		! 9 Time at point
20		! 10 Value at point
9		! 11 Time at point
20		! 12 Value at point
9		! 13 Time at point
18		! 14 Value at point
10		! 15 Time at point
18		! 16 Value at point
10		! 17 Time at point
14		! 18 Value at point
17		! 19 Time at point
14		! 20 Value at point
17		! 21 Time at point
18		! 22 Value at point
18		! 23 Time at point
18		! 24 Value at point
18		! 25 Time at point
14		! 26 Value at point
24		! 27 Time at point
14		! 28 Value at point
*------------------------------------------------------------------------------

* Model "PLOT" (Type 65)
* 

UNIT 6 TYPE 65	 PLOT
*$UNIT_NAME PLOT
*$MODEL \TRNSYS\TRNSYS Next Version\Studio\Proformas\Output\Online Plotter\Online Plotter Without File\Type65d.tmf
*$POSITION 1370 498
*$LAYER Outputs # 
PARAMETERS 12
8		! 1 Nb. of left-axis variables
3		! 2 Nb. of right-axis variables
0		! 3 Left axis minimum
50		! 4 Left axis maximum
0		! 5 Right axis minimum
100		! 6 Right axis maximum
1		! 7 Number of plots per simulation
7		! 8 X-axis gridpoints
0		! 9 Shut off Online w/o removing
-1		! 10 Logical unit for output file
0		! 11 Output file units
0		! 12 Output file delimiter
INPUTS 11
8,1 		! Type15-3:Dry bulb temperature ->Left axis variable-1
0,0		! [unconnected] Left axis variable-2
2,3 		! heat pump:Outlet Air Temperature ->Left axis variable-3
16,1 		! tank DHW:Temperature at outlet 1 ->Left axis variable-4
2,1 		! heat pump:Exiting Fluid Temperature ->Left axis variable-5
16,3 		! tank DHW:Temperature at outlet 2 ->Left axis variable-6
16,17 		! tank DHW:Tank nodal temperature-3 ->Left axis variable-7
16,1 		! tank DHW:Temperature at outlet 1 ->Left axis variable-8
2,2 		! heat pump:Exiting Fluid Flowrate ->Right axis variable-1
2,16 		! heat pump:C.O.P. ->Right axis variable-2
2,15 		! heat pump:Heat Pump Power ->Right axis variable-3
*** INITIAL INPUT VALUES
T_Ambient T_Zone T_Supply_Air T_Entering_Fluid T_Exiting_Fluid T_Tank_Top
T_Tank_Average T_Tank_Btm mload_out COP Php 
LABELS  3
"Temperature [C]"
"Not used"
"Graph 1"
*------------------------------------------------------------------------------

* Model "heat pump" (Type 917)
* 

UNIT 2 TYPE 917	 heat pump
SUMMARIZE 2 "heat pump"
*$UNIT_NAME heat pump
*$MODEL .\HVAC Library (TESS)\Heat Pumps\Single Speed Compressor and Multistage\Air(source) to Water Heat Pump\Air Humidity Effects Estimated\Type917_v2a.tmf
*$POSITION 451 362
*$LAYER Main # 
*$# AIR (SOURCE) TO WATER HEAT PUMP
*$# 
*$# 
*$# 
*$# 
*$# 
*$# 
*$# 
*$# 
*$# 
*$# 
*$# 
*$# 
*$# 
*$# 
*$# 
*$# 
*$# 
*$# 
*$# 
*$# 
PARAMETERS 27
1		! 1 Humidity Mode
48		! 2 Logical Unit for Cooling Data
49		! 3 Logical Unit for Heating Data
50		! 4 Logical Unit Number for Cooling Correction Data
51		! 5 Logical Unit Number for Heating Correction Data
3		! 6 Number of Water Flow Steps - Cooling
3		! 7 Number of Water Flow Steps - Heating
2		! 8 Number of Air Flow Steps - Cooling
2		! 9 Number of Air Flow Steps - Heating
4		! 10 Number of Water Temperatures - Cooling
4		! 11 Number of Water Temperatures - Heating
6		! 12 Number of Dry Bulb Temperatures - Cooling
6		! 13 Number of Wet Bulb Temperatures - Heating
4		! 14 Number of Dry Bulb Temperatures - Heating
1000		! 15 Density of Liquid Stream
4.19		! 16 Specific Heat of Liquid Stream
671.1		! 17 Blower Power
36		! 18 Controller Power
16200		! 19 Capacity of Auxiliary
300		! 20 Total Air Flowrate
30000		! 21 Rated Cooling Capacity
6000		! 22 Rated Cooling Power
30000		! 23 Rated Heating Capacity
6000		! 24 Rated Heating Power
300		! 25 Rated Air Flowrate
1		! 26 Rated Liquid Flowrate
4.19		! 27 Specific Heat of DHW Stream
INPUTS 17
49,1 		! mixerHPload:Outlet temperature ->Inlet Liquid Temperature
49,2 		! mixerHPload:Outlet flow rate ->Inlet Liquid Flowrate
8,1 		! Type15-3:Dry bulb temperature ->Inlet Air Temperature
8,6 		! Type15-3:Humidity ratio ->Inlet Air Humidity Ratio
0,0		! [unconnected] Inlet Air % Relative Humidity
8,10 		! Type15-3:Atmospheric pressure ->Inlet Air Pressure
0,0		! [unconnected] Air Pressure Rise Across Heat Pump
0,0		! [unconnected] Cooling Control Signal
ctrHP		! control_calc:ctrHP ->Heating Control Signal
0,0		! [unconnected] Auxiliary Signal
ctrHP		! control_calc:ctrHP ->Fan Control Signal
0,0		! [unconnected] Inlet DHW Temperature
0,0		! [unconnected] DHW Flowrate
0,0		! [unconnected] Desuperheater Temperature - Cooling Mode
0,0		! [unconnected] Desuperheater Temperature - Heating Mode
0,0		! [unconnected] Desuperheater UA - Cooling Mode
0,0		! [unconnected] Desuperheater UA - Heating Mode
*** INITIAL INPUT VALUES
20 1000 20 0.008 50 1 0 0 0 0 0 20 0 20 20 0 0 
*** External files
ASSIGN "C:\TRNSYS18\Tess Models\SampleCatalogData\Air-to-WaterHeatPumps\Type917_Normalized_Cooling_AWHP.Dat" 48
*|? Which file contains the heat pump cooling performance data? |1000
ASSIGN "C:\TRNSYS18\Tess Models\SampleCatalogData\Air-to-WaterHeatPumps\Type917_Normalized_Heating_AWHP.Dat" 49
*|? Which file contains the heat pump heating performance data? |1000
ASSIGN "C:\TRNSYS18\Tess Models\SampleCatalogData\Air-to-WaterHeatPumps\Type917_CorrectionFactors_Cooling.Dat" 50
*|? Which file contains the heat pump cooling correction factor data? |1000
ASSIGN "C:\TRNSYS18\Tess Models\SampleCatalogData\Air-to-WaterHeatPumps\Type917_CorrectionFactors_Heating.Dat" 51
*|? Which file contains the heat pump heating correction factor data? |1000
*------------------------------------------------------------------------------

* Model "PV/T" (Type 50)
* 

UNIT 27 TYPE 50	 PV/T
*$UNIT_NAME PV/T
*$MODEL .\Solar Thermal Collectors\PV-Thermal Collectors\Flat Plate Collectors\Loss=f(T,WS,G) and t=f(angle)\Type50d.tmf
*$POSITION 160 362
*$LAYER Main # 
PARAMETERS 13
4		! 1 Mode
area_coll		! 2 Collector Area
coll_eff		! 3 Collector Efficiency Factor
4.19		! 4 Fluid Thermal Capacitance
0.9		! 5 Collector plate absorptance
1		! 6 Number of glass covers
0.9		! 7 Collector plate emittance
20		! 8 Loss coefficient for bottom and edge losses
45		! 9 Collector slope
0.03		! 10 Extinction coefficient thickness product
-0.0003		! 11 Temperature coefficient of PV cell efficiency
20		! 12 Temperature for cell reference efficiency
pack_factor		! 13 Packing factor
INPUTS 8
0,0		! [unconnected] Inlet fluid temperature
0,0		! [unconnected] Fluid mass flow rate
8,1 		! Type15-3:Dry bulb temperature ->Ambient temperature
8,32 		! Type15-3:Beam radiation for surface-2 ->Incident beam radiation
8,53 		! Type15-3:Total diffuse radiation for surface-2 ->Incident diffuse radiation
8,60 		! Type15-3:Angle of incidence for surface-2 ->Incidence angle of beam radiation
0,0		! [unconnected] Windspeed
0,0		! [unconnected] Cell Efficiency at reference conditions
*** INITIAL INPUT VALUES
10 160 0 0 0 0 0 0.2 
*------------------------------------------------------------------------------

* Model "Building" (Type 56)
* 

UNIT 12 TYPE 56	 Building
*$UNIT_NAME Building
*$MODEL .\Loads and Structures\Multi-Zone Building\Type56.tmf
*$POSITION 247 159
*$LAYER Main # 
*$#   
PARAMETERS 3
85		! 1 Logical unit for building description file (*.b18, *.b17, *.bui)
0		! 2 Star network calculation switch
0.50		! 3 Weighting factor for operative temperature
INPUTS 19
8,1 		! Type15-3:Dry bulb temperature -> 1- TAMB
8,7 		! Type15-3:Percent relative humidity -> 2- RELHUMAMB
8,4 		! Type15-3:Effective sky temperature -> 3- TSKY
8,1 		! Type15-3:Dry bulb temperature -> 4- TSGRD
8,16 		! Type15-3:Solar zenith angle -> 5- AZEN
AAZM_TYPE56		! Radiation Unit Converter:AAZM_TYPE56 -> 6- AAZM
8,107 		! Type15-3:Ground reflectance -> 7- GRDREF
9,1 		! Type77:Soil Temperature at Node  -> 8- TGROUND
TBOUNDARY		! Wizard Settings:TBOUNDARY -> 9- TBOUNDARY
SHADE_CLOSE		! Wizard Settings:SHADE_CLOSE -> 10- SHADE_CLOSE
SHADE_OPEN		! Wizard Settings:SHADE_OPEN -> 11- SHADE_OPEN
MAX_ISHADE		! Wizard Settings:MAX_ISHADE -> 12- MAX_ISHADE
MAX_ESHADE		! Wizard Settings:MAX_ESHADE -> 13- MAX_ESHADE
47,3 		! Radiator1:Heat Transfer Rate -> 14- Q_livingroom
48,3 		! Radiator2:Heat Transfer Rate -> 15- Q_bedroom1
0,0		! [unconnected]  16- Q_bedroom2
0,0		! [unconnected]  17- Vent_living
0,0		! [unconnected]  18- Vent_first
infil_value		! Parameters:infil_value -> 19- Infil
*** INITIAL INPUT VALUES
0 0 0 0 0 0 0 0 0 0 0 0 0 0 0 0 0 0 0 
*** External files
ASSIGN "House.b18" 85
*|? Building description file (*.b18, *.b17, *.bui) |1000
*------------------------------------------------------------------------------

* Model "setpoint floor1" (Type 41)
* 

UNIT 41 TYPE 41	 setpoint floor1
*$UNIT_NAME setpoint floor1
*$MODEL .\Utility\Forcing Function Sequencers\Unique Days of the Week\Type41c.tmf
*$POSITION 1422 259
*$LAYER Main # 
PARAMETERS 8
1		! 1 Number of profiles for each day
1		! 2 Input set for day 1
2		! 3 Input set for day 2
3		! 4 Input set for day 3
4		! 5 Input set for day 4
5		! 6 Input set for day 5
6		! 7 Input set for day 6
7		! 8 Input set for day 7
INPUTS 7
43,1 		! schedule week:Average temperature ->First day input 
43,1 		! schedule week:Average temperature ->Second day input
43,1 		! schedule week:Average temperature ->Third day input
43,1 		! schedule week:Average temperature ->Fourth day input
43,1 		! schedule week:Average temperature ->Fifth day input
42,1 		! schedule weekend:Average temperature ->Sixth day input
42,1 		! schedule weekend:Average temperature ->Seventh day input
*** INITIAL INPUT VALUES
0 0 0 0 0 0 0 
*------------------------------------------------------------------------------

* Model "setpoint floor 2" (Type 41)
* 

UNIT 46 TYPE 41	 setpoint floor 2
*$UNIT_NAME setpoint floor 2
*$MODEL .\Utility\Forcing Function Sequencers\Unique Days of the Week\Type41c.tmf
*$POSITION 1435 561
*$LAYER Main # 
PARAMETERS 8
1		! 1 Number of profiles for each day
1		! 2 Input set for day 1
2		! 3 Input set for day 2
3		! 4 Input set for day 3
4		! 5 Input set for day 4
5		! 6 Input set for day 5
6		! 7 Input set for day 6
7		! 8 Input set for day 7
INPUTS 7
44,1 		! schedule week-2:Average temperature ->First day input 
44,1 		! schedule week-2:Average temperature ->Second day input
44,1 		! schedule week-2:Average temperature ->Third day input
44,1 		! schedule week-2:Average temperature ->Fourth day input
44,1 		! schedule week-2:Average temperature ->Fifth day input
45,1 		! schedule weekend-2:Average temperature ->Sixth day input
45,1 		! schedule weekend-2:Average temperature ->Seventh day input
*** INITIAL INPUT VALUES
0 0 0 0 0 0 0 
*------------------------------------------------------------------------------

* EQUATIONS "load"
* 
EQUATIONS 3
ltg = [12,78] + [12,5] + [12,40] + [12,48] + [12,28] + [12,34] + [12,22] + [12,16] + [12,66]
app = [12,77] + [12,4] + [12,39] + [12,47] + [12,27] + [12,33] + [12,21] + [12,15] + [12,65]
total_load = ltg + app + [16,11] + [2,15]
*$UNIT_NAME load
*$LAYER Main
*$POSITION 374 710
*$UNIT_NUMBER 29

*------------------------------------------------------------------------------


* Model "pumpHP" (Type 114)
* 

UNIT 31 TYPE 114	 pumpHP
*$UNIT_NAME pumpHP
*$MODEL .\Hydronics\Pumps\Single Speed\Type114.tmf
*$POSITION 549 267
*$LAYER Main # 
*$# SINGLE-SPEED PUMP
PARAMETERS 4
flow_rate_load		! 1 Rated flow rate
4.19		! 2 Fluid specific heat
2684		! 3 Rated power
0.0		! 4 Motor heat loss fraction
INPUTS 5
2,1 		! heat pump:Exiting Fluid Temperature ->Inlet fluid temperature
2,2 		! heat pump:Exiting Fluid Flowrate ->Inlet fluid flow rate
ctrHP		! control_calc:ctrHP ->Control signal
0,0		! [unconnected] Overall pump efficiency
0,0		! [unconnected] Motor efficiency
*** INITIAL INPUT VALUES
20 0 1 0.6 0.9 
*------------------------------------------------------------------------------

* Model "Type48c" (Type 48)
* 

UNIT 28 TYPE 48	 Type48c
*$UNIT_NAME Type48c
*$MODEL .\Electrical\Regulators and Inverters\System w_ battery storage\MPP Tracking\SOC and SOV monitoring\Type48c.tmf
*$POSITION 249 748
*$LAYER Main # 
PARAMETERS 10
2		! 1 Mode
0.78		! 2 Regulator efficiency
0.96		! 3 Inverter efficiency (DC to AC)
0.9		! 4 High limit on fractional state of charge (FSOC)
0.1		! 5 Low limit on FSOC
0.09		! 6 Charge to discharge limit on FSOC
3600		! 7 Power output limit
0.8		! 8 Inverter efficiency (AC to DC)
3		! 9 Current for grid charging of battery
0.6		! 10 Upper limit on FSOC for grid charging
INPUTS 12
27,6 		! PV/T:Electrical power output ->Input power
total_load		! load:total_load ->Load power
30,2 		! Type47b:Fractional state of charge ->Battery fractional state of charge
30,6 		! Type47b:Total voltage ->Battery voltage (BV)
max_batt_in		! [equation] Max battery input
max_batt_out		! [equation] Max battery output
dcv		! [equation] Lower limit on battery voltage
30,10 		! Type47b:Power corresponding to DCV ->Allowable discharge rate when at low voltage limit
ccv		! [equation] High limit on battery voltage
30,12 		! Type47b:Power corresponding to CCV ->Allowable charge rate when at high voltage limit
0,0		! [unconnected] Start time for grid battery charging
0,0		! [unconnected] Stop time for grid battery charging
*** INITIAL INPUT VALUES
0 0 0 200 max_batt_in max_batt_out dcv 0 ccv 0 24 0 
*------------------------------------------------------------------------------

* Model "Radiator1" (Type 1231)
* 

UNIT 47 TYPE 1231	 Radiator1
*$UNIT_NAME Radiator1
*$MODEL .\HVAC Library (TESS)\Radiators\ASHRAE Method\Type1231_v2a.tmf
*$POSITION 1119 202
*$LAYER Main # 
*$# RADIATOR
PARAMETERS 9
20000		! 1 Design Capacity
40		! 2 Design Surface Temperature
20		! 3 Design Air Temperature
1.3		! 4 Design Delta-T Exponent
2		! 5 Number of Pipes
0.025		! 6 Pipe Inside Diameter
0.5		! 7 Air Pressure Exponent
4.19		! 8 Liquid Specific Heat
1000		! 9 Liquid Density
INPUTS 4
37,1 		! div SH:Temperature at outlet 1 ->Inlet Liquid Temperature
37,2 		! div SH:Flow rate at outlet 1 ->Liquid Flowrate
12,1 		! Building: 1- TAIR_BG_Living_room2 ->Room Temperature
0,0		! [unconnected] Room Air Pressure
*** INITIAL INPUT VALUES
40 0 15 1 
*------------------------------------------------------------------------------

* Model "setpoint floor 2-2" (Type 108)
* 

UNIT 39 TYPE 108	 setpoint floor 2-2
*$UNIT_NAME setpoint floor 2-2
*$MODEL .\Controllers\5-Stage Room Thermostat\Type108.tmf
*$POSITION 1314 492
*$LAYER Main # 
PARAMETERS 6
5		! 1 No of oscillations permitted
1		! 2 1st stage heating in 2nd stage?
1		! 3 2nd stage heating in 3rd stage?
1		! 4 1st stage heating in 3rd stage?
1		! 5 1st stage cooling in 2nd stage?
2		! 6 Temperature dead band
INPUTS 6
12,35 		! Building: 35- TAIR_1e_Bedroom1 ->Monitoring temperature
46,1 		! setpoint floor 2:Forcing function output for current day ->1st stage heating setpoint
0,0		! [unconnected] 2nd stage heating setpoint
0,0		! [unconnected] 3rd stage heating setpoint
0,0		! [unconnected] 1st stage cooling setpoint
0,0		! [unconnected] 2nd stage cooling setpoint
*** INITIAL INPUT VALUES
20.0 16 13 2 24.0 26.0 
*------------------------------------------------------------------------------

* Model "setpoint floor 1" (Type 108)
* 

UNIT 38 TYPE 108	 setpoint floor 1
*$UNIT_NAME setpoint floor 1
*$MODEL .\Controllers\5-Stage Room Thermostat\Type108.tmf
*$POSITION 1313 374
*$LAYER Main # 
PARAMETERS 6
5		! 1 No of oscillations permitted
1		! 2 1st stage heating in 2nd stage?
1		! 3 2nd stage heating in 3rd stage?
1		! 4 1st stage heating in 3rd stage?
1		! 5 1st stage cooling in 2nd stage?
5		! 6 Temperature dead band
INPUTS 6
12,1 		! Building: 1- TAIR_BG_Living_room2 ->Monitoring temperature
41,1 		! setpoint floor1:Forcing function output for current day ->1st stage heating setpoint
0,0		! [unconnected] 2nd stage heating setpoint
0,0		! [unconnected] 3rd stage heating setpoint
0,0		! [unconnected] 1st stage cooling setpoint
0,0		! [unconnected] 2nd stage cooling setpoint
*** INITIAL INPUT VALUES
20.0 21 13 2 24.0 26.0 
*------------------------------------------------------------------------------

* Model "Radiator2" (Type 1231)
* 

UNIT 48 TYPE 1231	 Radiator2
*$UNIT_NAME Radiator2
*$MODEL .\HVAC Library (TESS)\Radiators\ASHRAE Method\Type1231_v2a.tmf
*$POSITION 1119 295
*$LAYER Main # 
*$# RADIATOR
PARAMETERS 9
20000		! 1 Design Capacity
40		! 2 Design Surface Temperature
20		! 3 Design Air Temperature
1.3		! 4 Design Delta-T Exponent
2		! 5 Number of Pipes
0.025		! 6 Pipe Inside Diameter
0.5		! 7 Air Pressure Exponent
4.19		! 8 Liquid Specific Heat
1000		! 9 Liquid Density
INPUTS 4
37,3 		! div SH:Temperature at outlet 2 ->Inlet Liquid Temperature
37,4 		! div SH:Flow rate at outlet 2 ->Liquid Flowrate
12,35 		! Building: 35- TAIR_1e_Bedroom1 ->Room Temperature
0,0		! [unconnected] Room Air Pressure
*** INITIAL INPUT VALUES
40 0 15 1 
*------------------------------------------------------------------------------

* Model "divHP" (Type 11)
* 

UNIT 32 TYPE 11	 divHP
*$UNIT_NAME divHP
*$MODEL .\Hydronics\Flow Diverter\Other Fluids\Type11f.tmf
*$POSITION 672 266
*$LAYER Main # 
PARAMETERS 1
2		! 1 Flow diverter mode
INPUTS 3
31,1 		! pumpHP:Outlet fluid temperature ->Inlet temperature
31,2 		! pumpHP:Outlet flow rate ->Inlet flow rate
ctr_divHP		! control_calc:ctr_divHP ->Control signal
*** INITIAL INPUT VALUES
20.0 0 0 
*------------------------------------------------------------------------------

* Model "Type47b" (Type 47)
* 

UNIT 30 TYPE 47	 Type47b
*$UNIT_NAME Type47b
*$MODEL .\Electrical\Batteries\Power as an input\Shepherd Equation\Type47b.tmf
*$POSITION 250 833
*$LAYER Main # 
PARAMETERS 9
2		! 1 Mode
cell_cap		! 2 Cell energy capacity
1		! 3 Cells in parallel
ncell		! 4 Cells in series
0.9		! 5 Charging efficiency
charge_current		! 6 Max. current per cell charging
discharge_current		! 7 Max. current per cell discharge
2.5		! 8 Max. charge voltage per cell
-1		! 9 Discharge cutoff voltage
INPUTS 1
28,2 		! Type48c:Power to or from battery ->Power to or from battery
*** INITIAL INPUT VALUES
0 
DERIVATIVES 1
0		! 1 State of charge1
*------------------------------------------------------------------------------

* Model "MixerRad" (Type 11)
* 

UNIT 40 TYPE 11	 MixerRad
*$UNIT_NAME MixerRad
*$MODEL .\Hydronics\Controlled Flow Mixer\Other Fluids\Type11d.tmf
*$POSITION 1250 257
*$LAYER Water Loop # 
PARAMETERS 1
3		! 1 Controlled flow mixer mode
INPUTS 5
47,1 		! Radiator1:Liquid Outlet Temperature ->Temperature at inlet 1
47,2 		! Radiator1:Liquid Outlet Flowrate ->Flow rate at inlet 1
48,1 		! Radiator2:Liquid Outlet Temperature ->Temperature at inlet 2
48,2 		! Radiator2:Liquid Outlet Flowrate ->Flow rate at inlet 2
0,0		! [unconnected] Control signal
*** INITIAL INPUT VALUES
20.0 100.0 20.0 100.0 0.5 
*------------------------------------------------------------------------------

* EQUATIONS "control_calc"
* 
EQUATIONS 14
floor1 = [38,1]
floor2 = [39,1]
ctrSH = and(or([38,1],[39,1]), heatingseason)
ctr_divSH = and([38,1],[39,1])*0.5+or([38,1],[39,1])*gt([39,1],[38,1])
night = and(lt([16,5],45), and( gt([22,11],3),lt([22,11],6) ) )
emergency = and(lt([16,5],30),  and( gt([22,11],16),lt([22,11],22) ) )
ctrDHW = or(or(night,emergency),legionella)
ctrHP = or(ctrSH,ctrDHW)
ctr_divHP = or(ctrDHW,0)
legionella = and(and(eql([22,7],7), lt([16,5],61)), and(gt([22,11],5),lt([22,11],8)))
heatingseason = or(lt([22,4],6), gt([22,4],9))
pvt_pump = or(ctrSH,ctrDHW)
dhw_signal = gt(mdDHW,0)
SH_pump = ctrSH*not(ctrDHW)
*$UNIT_NAME control_calc
*$LAYER Main
*$POSITION 1184 657
*$UNIT_NUMBER 26

*------------------------------------------------------------------------------


* Model "tank stat" (Type 106)
* 

UNIT 33 TYPE 106	 tank stat
*$UNIT_NAME tank stat
*$MODEL .\Controllers\Basic Aquastat\Heating Mode\Type106.tmf
*$POSITION 816 323
*$LAYER Main # 
*$# Simple Aquastat - Heating
PARAMETERS 2
5		! 1 No. of oscillations permitted
2.0		! 2 Temperature dead band
INPUTS 2
35,14 		! tank SH:Temperature at thermostat ->Monitoring temperature
0,0		! [unconnected] Heating setpoint
*** INITIAL INPUT VALUES
20.0 40 
*------------------------------------------------------------------------------

* EQUATIONS "qAux tank"
* 
EQUATIONS 1
qAux_tank = [33,1]*0